1



                                 *********************************************

                                    NUMERICAL ELECTROMAGNETICS CODE (NEC-2D)

                                 *********************************************




                                     - - - - COMMENTS - - - -


                          ECE 6370 - Homework 5.A                                                    
                          Caitlyn Caggia                                                             
                          CENTER FED HALF-WAVE DIPOLE                                                




                                 - - - STRUCTURE SPECIFICATION - - -

                                     COORDINATES MUST BE INPUT IN
                                     METERS OR BE SCALED TO METERS
                                     BEFORE STRUCTURE INPUT IS ENDED


  WIRE                                                                               NO. OF    FIRST  LAST     TAG
  NO.        X1         Y1         Z1          X2         Y2         Z2      RADIUS   SEG.     SEG.   SEG.     NO.
     1    0.00000    0.00000   -0.15000     0.00000    0.00000    0.15000    0.00010     31        1    31       1

   TOTAL SEGMENTS USED=   31     NO. SEG. IN A SYMMETRIC CELL=   31     SYMMETRY FLAG=  0


         - MULTIPLE WIRE JUNCTIONS -
 JUNCTION    SEGMENTS  (- FOR END 1, + FOR END 2)
  NONE




                                 - - - - SEGMENTATION DATA - - - -

                                        COORDINATES IN METERS

                         I+ AND I- INDICATE THE SEGMENTS BEFORE AND AFTER I


  SEG.   COORDINATES OF SEG. CENTER     SEG.     ORIENTATION ANGLES    WIRE    CONNECTION DATA   TAG
  NO.       X         Y         Z       LENGTH     ALPHA     BETA      RADIUS    I-   I    I+    NO.
     1   0.00000   0.00000  -0.14516   0.00968   90.00000   0.00000   0.00010     0    1    2      1
     2   0.00000   0.00000  -0.13548   0.00968   90.00000   0.00000   0.00010     1    2    3      1
     3   0.00000   0.00000  -0.12581   0.00968   90.00000   0.00000   0.00010     2    3    4      1
     4   0.00000   0.00000  -0.11613   0.00968   90.00000   0.00000   0.00010     3    4    5      1
     5   0.00000   0.00000  -0.10645   0.00968   90.00000   0.00000   0.00010     4    5    6      1
     6   0.00000   0.00000  -0.09677   0.00968   90.00000   0.00000   0.00010     5    6    7      1
     7   0.00000   0.00000  -0.08710   0.00968   90.00000   0.00000   0.00010     6    7    8      1
     8   0.00000   0.00000  -0.07742   0.00968   90.00000   0.00000   0.00010     7    8    9      1
     9   0.00000   0.00000  -0.06774   0.00968   90.00000   0.00000   0.00010     8    9   10      1
    10   0.00000   0.00000  -0.05806   0.00968   90.00000   0.00000   0.00010     9   10   11      1
    11   0.00000   0.00000  -0.04839   0.00968   90.00000   0.00000   0.00010    10   11   12      1
    12   0.00000   0.00000  -0.03871   0.00968   90.00000   0.00000   0.00010    11   12   13      1
    13   0.00000   0.00000  -0.02903   0.00968   90.00000   0.00000   0.00010    12   13   14      1
    14   0.00000   0.00000  -0.01935   0.00968   90.00000   0.00000   0.00010    13   14   15      1
    15   0.00000   0.00000  -0.00968   0.00968   90.00000   0.00000   0.00010    14   15   16      1
    16   0.00000   0.00000   0.00000   0.00968   90.00000   0.00000   0.00010    15   16   17      1
    17   0.00000   0.00000   0.00968   0.00968   90.00000   0.00000   0.00010    16   17   18      1
    18   0.00000   0.00000   0.01935   0.00968   90.00000   0.00000   0.00010    17   18   19      1
    19   0.00000   0.00000   0.02903   0.00968   90.00000   0.00000   0.00010    18   19   20      1
    20   0.00000   0.00000   0.03871   0.00968   90.00000   0.00000   0.00010    19   20   21      1
    21   0.00000   0.00000   0.04839   0.00968   90.00000   0.00000   0.00010    20   21   22      1
    22   0.00000   0.00000   0.05806   0.00968   90.00000   0.00000   0.00010    21   22   23      1
    23   0.00000   0.00000   0.06774   0.00968   90.00000   0.00000   0.00010    22   23   24      1
    24   0.00000   0.00000   0.07742   0.00968   90.00000   0.00000   0.00010    23   24   25      1
    25   0.00000   0.00000   0.08710   0.00968   90.00000   0.00000   0.00010    24   25   26      1
    26   0.00000   0.00000   0.09677   0.00968   90.00000   0.00000   0.00010    25   26   27      1
    27   0.00000   0.00000   0.10645   0.00968   90.00000   0.00000   0.00010    26   27   28      1
    28   0.00000   0.00000   0.11613   0.00968   90.00000   0.00000   0.00010    27   28   29      1
    29   0.00000   0.00000   0.12581   0.00968   90.00000   0.00000   0.00010    28   29   30      1
    30   0.00000   0.00000   0.13548   0.00968   90.00000   0.00000   0.00010    29   30   31      1
    31   0.00000   0.00000   0.14516   0.00968   90.00000   0.00000   0.00010    30   31    0      1






 ***** DATA CARD NO.  1   EX   0     1    16     0  1.00000E+00  0.00000E+00  0.00000E+00  0.00000E+00  0.00000E+00  0.00000E+00
 ***** DATA CARD NO.  2   FR   0   200     0     0  1.00000E+01  1.00000E+01  0.00000E+00  0.00000E+00  0.00000E+00  0.00000E+00
 ***** DATA CARD NO.  3   RP   0     1     0  1000  9.00000E+01  0.00000E+00  0.00000E+00  0.00000E+00  0.00000E+00  0.00000E+00




                                 - - - - - - FREQUENCY - - - - - -

                                    FREQUENCY= 1.0000E+01 MHZ
                                    WAVELENGTH= 2.9980E+01 METERS




                    APPROXIMATE INTEGRATION EMPLOYED FOR SEGMENTS MORE THAN   1.000 WAVELENGTHS APART



                               - - - STRUCTURE IMPEDANCE LOADING - - -

                                   THIS STRUCTURE IS NOT LOADED



                                  - - - ANTENNA ENVIRONMENT - - -

                                            FREE SPACE



                                - - - MATRIX TIMING - - -

                        FILL=    0.000 SEC.,  FACTOR=    0.000 SEC.



                                          - - - ANTENNA INPUT PARAMETERS - - -

   TAG   SEG.    VOLTAGE (VOLTS)         CURRENT (AMPS)         IMPEDANCE (OHMS)        ADMITTANCE (MHOS)      POWER
   NO.   NO.    REAL        IMAG.       REAL        IMAG.       REAL        IMAG.       REAL        IMAG.     (WATTS)
     1    16 1.00000E+00 0.00000E+00 3.23997E-11 4.09650E-05 1.93070E-02-2.44111E+04 3.23997E-11 4.09650E-05 1.61999E-11



                             - - - CURRENTS AND LOCATION - - -

                                 DISTANCES IN WAVELENGTHS


  SEG.  TAG    COORD. OF SEG. CENTER     SEG.            - - - CURRENT (AMPS) - - -
  NO.   NO.     X        Y        Z      LENGTH     REAL        IMAG.       MAG.        PHASE
     1    1   0.0000   0.0000  -0.0048  0.00032   2.6885E-12  1.6242E-06  1.6242E-06   90.000
     2    1   0.0000   0.0000  -0.0045  0.00032   7.0255E-12  4.3931E-06  4.3931E-06   90.000
     3    1   0.0000   0.0000  -0.0042  0.00032   1.0759E-11  6.9747E-06  6.9747E-06   90.000
     4    1   0.0000   0.0000  -0.0039  0.00032   1.4106E-11  9.4927E-06  9.4927E-06   90.000
     5    1   0.0000   0.0000  -0.0036  0.00032   1.7122E-11  1.1978E-05  1.1978E-05   90.000
     6    1   0.0000   0.0000  -0.0032  0.00032   1.9836E-11  1.4449E-05  1.4449E-05   90.000
     7    1   0.0000   0.0000  -0.0029  0.00032   2.2264E-11  1.6916E-05  1.6916E-05   90.000
     8    1   0.0000   0.0000  -0.0026  0.00032   2.4418E-11  1.9389E-05  1.9389E-05   90.000
     9    1   0.0000   0.0000  -0.0023  0.00032   2.6305E-11  2.1878E-05  2.1878E-05   90.000
    10    1   0.0000   0.0000  -0.0019  0.00032   2.7932E-11  2.4392E-05  2.4392E-05   90.000
    11    1   0.0000   0.0000  -0.0016  0.00032   2.9303E-11  2.6945E-05  2.6945E-05   90.000
    12    1   0.0000   0.0000  -0.0013  0.00032   3.0421E-11  2.9553E-05  2.9553E-05   90.000
    13    1   0.0000   0.0000  -0.0010  0.00032   3.1288E-11  3.2245E-05  3.2245E-05   90.000
    14    1   0.0000   0.0000  -0.0006  0.00032   3.1906E-11  3.5072E-05  3.5072E-05   90.000
    15    1   0.0000   0.0000  -0.0003  0.00032   3.2276E-11  3.8189E-05  3.8189E-05   90.000
    16    1   0.0000   0.0000   0.0000  0.00032   3.2400E-11  4.0965E-05  4.0965E-05   90.000
    17    1   0.0000   0.0000   0.0003  0.00032   3.2276E-11  3.8189E-05  3.8189E-05   90.000
    18    1   0.0000   0.0000   0.0006  0.00032   3.1906E-11  3.5072E-05  3.5072E-05   90.000
    19    1   0.0000   0.0000   0.0010  0.00032   3.1288E-11  3.2245E-05  3.2245E-05   90.000
    20    1   0.0000   0.0000   0.0013  0.00032   3.0421E-11  2.9553E-05  2.9553E-05   90.000
    21    1   0.0000   0.0000   0.0016  0.00032   2.9303E-11  2.6945E-05  2.6945E-05   90.000
    22    1   0.0000   0.0000   0.0019  0.00032   2.7932E-11  2.4392E-05  2.4392E-05   90.000
    23    1   0.0000   0.0000   0.0023  0.00032   2.6305E-11  2.1878E-05  2.1878E-05   90.000
    24    1   0.0000   0.0000   0.0026  0.00032   2.4418E-11  1.9389E-05  1.9389E-05   90.000
    25    1   0.0000   0.0000   0.0029  0.00032   2.2264E-11  1.6916E-05  1.6916E-05   90.000
    26    1   0.0000   0.0000   0.0032  0.00032   1.9836E-11  1.4449E-05  1.4449E-05   90.000
    27    1   0.0000   0.0000   0.0036  0.00032   1.7122E-11  1.1978E-05  1.1978E-05   90.000
    28    1   0.0000   0.0000   0.0039  0.00032   1.4106E-11  9.4927E-06  9.4927E-06   90.000
    29    1   0.0000   0.0000   0.0042  0.00032   1.0759E-11  6.9747E-06  6.9747E-06   90.000
    30    1   0.0000   0.0000   0.0045  0.00032   7.0255E-12  4.3931E-06  4.3931E-06   90.000
    31    1   0.0000   0.0000   0.0048  0.00032   2.6885E-12  1.6242E-06  1.6242E-06   90.000



                                        - - - POWER BUDGET - - -

                                           INPUT POWER   = 1.6200E-11 WATTS
                                           RADIATED POWER= 1.6200E-11 WATTS
                                           STRUCTURE LOSS= 0.0000E+00 WATTS
                                           NETWORK LOSS  = 0.0000E+00 WATTS
                                           EFFICIENCY    = 100.00 PERCENT



                                                - - - RADIATION PATTERNS - - -

  - - ANGLES - -           - POWER GAINS -       - - - POLARIZATION - - -    - - - E(THETA) - - -    - - - E(PHI) - - -
  THETA     PHI        VERT.   HOR.    TOTAL      AXIAL     TILT   SENSE     MAGNITUDE    PHASE      MAGNITUDE    PHASE 
 DEGREES  DEGREES       DB      DB      DB        RATIO     DEG.              VOLTS/M    DEGREES      VOLTS/M    DEGREES
   90.00     0.00       1.76 -999.99    1.76    0.00000     0.00  LINEAR    3.81641E-05   180.00    0.00000E+00     0.00




                                 - - - - - - FREQUENCY - - - - - -

                                    FREQUENCY= 2.0000E+01 MHZ
                                    WAVELENGTH= 1.4990E+01 METERS




                    APPROXIMATE INTEGRATION EMPLOYED FOR SEGMENTS MORE THAN   1.000 WAVELENGTHS APART



                               - - - STRUCTURE IMPEDANCE LOADING - - -

                                   THIS STRUCTURE IS NOT LOADED



                                  - - - ANTENNA ENVIRONMENT - - -

                                            FREE SPACE



                                - - - MATRIX TIMING - - -

                        FILL=    0.000 SEC.,  FACTOR=    0.000 SEC.



                                          - - - ANTENNA INPUT PARAMETERS - - -

   TAG   SEG.    VOLTAGE (VOLTS)         CURRENT (AMPS)         IMPEDANCE (OHMS)        ADMITTANCE (MHOS)      POWER
   NO.   NO.    REAL        IMAG.       REAL        IMAG.       REAL        IMAG.       REAL        IMAG.     (WATTS)
     1    16 1.00000E+00 0.00000E+00 5.19774E-10 8.20169E-05 7.72695E-02-1.21926E+04 5.19774E-10 8.20169E-05 2.59887E-10



                             - - - CURRENTS AND LOCATION - - -

                                 DISTANCES IN WAVELENGTHS


  SEG.  TAG    COORD. OF SEG. CENTER     SEG.            - - - CURRENT (AMPS) - - -
  NO.   NO.     X        Y        Z      LENGTH     REAL        IMAG.       MAG.        PHASE
     1    1   0.0000   0.0000  -0.0097  0.00065   4.3119E-11  3.2539E-06  3.2539E-06   89.999
     2    1   0.0000   0.0000  -0.0090  0.00065   1.1268E-10  8.8012E-06  8.8012E-06   89.999
     3    1   0.0000   0.0000  -0.0084  0.00065   1.7256E-10  1.3973E-05  1.3973E-05   89.999
     4    1   0.0000   0.0000  -0.0077  0.00065   2.2625E-10  1.9017E-05  1.9017E-05   89.999
     5    1   0.0000   0.0000  -0.0071  0.00065   2.7464E-10  2.3997E-05  2.3997E-05   89.999
     6    1   0.0000   0.0000  -0.0065  0.00065   3.1817E-10  2.8945E-05  2.8945E-05   89.999
     7    1   0.0000   0.0000  -0.0058  0.00065   3.5713E-10  3.3886E-05  3.3886E-05   89.999
     8    1   0.0000   0.0000  -0.0052  0.00065   3.9169E-10  3.8838E-05  3.8838E-05   89.999
     9    1   0.0000   0.0000  -0.0045  0.00065   4.2198E-10  4.3821E-05  4.3821E-05   89.999
    10    1   0.0000   0.0000  -0.0039  0.00065   4.4809E-10  4.8855E-05  4.8855E-05   89.999
    11    1   0.0000   0.0000  -0.0032  0.00065   4.7008E-10  5.3965E-05  5.3965E-05   90.000
    12    1   0.0000   0.0000  -0.0026  0.00065   4.8802E-10  5.9186E-05  5.9186E-05   90.000
    13    1   0.0000   0.0000  -0.0019  0.00065   5.0193E-10  6.4573E-05  6.4573E-05   90.000
    14    1   0.0000   0.0000  -0.0013  0.00065   5.1185E-10  7.0229E-05  7.0229E-05   90.000
    15    1   0.0000   0.0000  -0.0006  0.00065   5.1779E-10  7.6463E-05  7.6463E-05   90.000
    16    1   0.0000   0.0000   0.0000  0.00065   5.1977E-10  8.2017E-05  8.2017E-05   90.000
    17    1   0.0000   0.0000   0.0006  0.00065   5.1779E-10  7.6463E-05  7.6463E-05   90.000
    18    1   0.0000   0.0000   0.0013  0.00065   5.1185E-10  7.0229E-05  7.0229E-05   90.000
    19    1   0.0000   0.0000   0.0019  0.00065   5.0193E-10  6.4573E-05  6.4573E-05   90.000
    20    1   0.0000   0.0000   0.0026  0.00065   4.8802E-10  5.9186E-05  5.9186E-05   90.000
    21    1   0.0000   0.0000   0.0032  0.00065   4.7008E-10  5.3965E-05  5.3965E-05   90.000
    22    1   0.0000   0.0000   0.0039  0.00065   4.4809E-10  4.8855E-05  4.8855E-05   89.999
    23    1   0.0000   0.0000   0.0045  0.00065   4.2198E-10  4.3821E-05  4.3821E-05   89.999
    24    1   0.0000   0.0000   0.0052  0.00065   3.9169E-10  3.8838E-05  3.8838E-05   89.999
    25    1   0.0000   0.0000   0.0058  0.00065   3.5713E-10  3.3886E-05  3.3886E-05   89.999
    26    1   0.0000   0.0000   0.0065  0.00065   3.1817E-10  2.8945E-05  2.8945E-05   89.999
    27    1   0.0000   0.0000   0.0071  0.00065   2.7464E-10  2.3997E-05  2.3997E-05   89.999
    28    1   0.0000   0.0000   0.0077  0.00065   2.2625E-10  1.9017E-05  1.9017E-05   89.999
    29    1   0.0000   0.0000   0.0084  0.00065   1.7256E-10  1.3973E-05  1.3973E-05   89.999
    30    1   0.0000   0.0000   0.0090  0.00065   1.1268E-10  8.8012E-06  8.8012E-06   89.999
    31    1   0.0000   0.0000   0.0097  0.00065   4.3119E-11  3.2539E-06  3.2539E-06   89.999



                                        - - - POWER BUDGET - - -

                                           INPUT POWER   = 2.5989E-10 WATTS
                                           RADIATED POWER= 2.5989E-10 WATTS
                                           STRUCTURE LOSS= 0.0000E+00 WATTS
                                           NETWORK LOSS  = 0.0000E+00 WATTS
                                           EFFICIENCY    = 100.00 PERCENT



                                                - - - RADIATION PATTERNS - - -

  - - ANGLES - -           - POWER GAINS -       - - - POLARIZATION - - -    - - - E(THETA) - - -    - - - E(PHI) - - -
  THETA     PHI        VERT.   HOR.    TOTAL      AXIAL     TILT   SENSE     MAGNITUDE    PHASE      MAGNITUDE    PHASE 
 DEGREES  DEGREES       DB      DB      DB        RATIO     DEG.              VOLTS/M    DEGREES      VOLTS/M    DEGREES
   90.00     0.00       1.76 -999.99    1.76    0.00000     0.00  LINEAR    1.52867E-04   180.00    0.00000E+00     0.00




                                 - - - - - - FREQUENCY - - - - - -

                                    FREQUENCY= 3.0000E+01 MHZ
                                    WAVELENGTH= 9.9933E+00 METERS




                    APPROXIMATE INTEGRATION EMPLOYED FOR SEGMENTS MORE THAN   1.000 WAVELENGTHS APART



                               - - - STRUCTURE IMPEDANCE LOADING - - -

                                   THIS STRUCTURE IS NOT LOADED



                                  - - - ANTENNA ENVIRONMENT - - -

                                            FREE SPACE



                                - - - MATRIX TIMING - - -

                        FILL=    0.000 SEC.,  FACTOR=    0.000 SEC.



                                          - - - ANTENNA INPUT PARAMETERS - - -

   TAG   SEG.    VOLTAGE (VOLTS)         CURRENT (AMPS)         IMPEDANCE (OHMS)        ADMITTANCE (MHOS)      POWER
   NO.   NO.    REAL        IMAG.       REAL        IMAG.       REAL        IMAG.       REAL        IMAG.     (WATTS)
     1    16 1.00000E+00 0.00000E+00 2.64305E-09 1.23243E-04 1.74012E-01-8.11403E+03 2.64305E-09 1.23243E-04 1.32153E-09



                             - - - CURRENTS AND LOCATION - - -

                                 DISTANCES IN WAVELENGTHS


  SEG.  TAG    COORD. OF SEG. CENTER     SEG.            - - - CURRENT (AMPS) - - -
  NO.   NO.     X        Y        Z      LENGTH     REAL        IMAG.       MAG.        PHASE
     1    1   0.0000   0.0000  -0.0145  0.00097   2.1915E-10  4.8950E-06  4.8950E-06   89.997
     2    1   0.0000   0.0000  -0.0136  0.00097   5.7274E-10  1.3240E-05  1.3240E-05   89.998
     3    1   0.0000   0.0000  -0.0126  0.00097   8.7714E-10  2.1019E-05  2.1019E-05   89.998
     4    1   0.0000   0.0000  -0.0116  0.00097   1.1501E-09  2.8606E-05  2.8606E-05   89.998
     5    1   0.0000   0.0000  -0.0107  0.00097   1.3962E-09  3.6094E-05  3.6094E-05   89.998
     6    1   0.0000   0.0000  -0.0097  0.00097   1.6176E-09  4.3535E-05  4.3535E-05   89.998
     7    1   0.0000   0.0000  -0.0087  0.00097   1.8157E-09  5.0963E-05  5.0963E-05   89.998
     8    1   0.0000   0.0000  -0.0077  0.00097   1.9915E-09  5.8408E-05  5.8408E-05   89.998
     9    1   0.0000   0.0000  -0.0068  0.00097   2.1455E-09  6.5897E-05  6.5897E-05   89.998
    10    1   0.0000   0.0000  -0.0058  0.00097   2.2784E-09  7.3461E-05  7.3461E-05   89.998
    11    1   0.0000   0.0000  -0.0048  0.00097   2.3902E-09  8.1137E-05  8.1137E-05   89.998
    12    1   0.0000   0.0000  -0.0039  0.00097   2.4815E-09  8.8979E-05  8.8979E-05   89.998
    13    1   0.0000   0.0000  -0.0029  0.00097   2.5523E-09  9.7067E-05  9.7067E-05   89.998
    14    1   0.0000   0.0000  -0.0019  0.00097   2.6027E-09  1.0556E-04  1.0556E-04   89.999
    15    1   0.0000   0.0000  -0.0010  0.00097   2.6330E-09  1.1491E-04  1.1491E-04   89.999
    16    1   0.0000   0.0000   0.0000  0.00097   2.6431E-09  1.2324E-04  1.2324E-04   89.999
    17    1   0.0000   0.0000   0.0010  0.00097   2.6330E-09  1.1491E-04  1.1491E-04   89.999
    18    1   0.0000   0.0000   0.0019  0.00097   2.6027E-09  1.0556E-04  1.0556E-04   89.999
    19    1   0.0000   0.0000   0.0029  0.00097   2.5523E-09  9.7067E-05  9.7067E-05   89.998
    20    1   0.0000   0.0000   0.0039  0.00097   2.4815E-09  8.8978E-05  8.8978E-05   89.998
    21    1   0.0000   0.0000   0.0048  0.00097   2.3902E-09  8.1137E-05  8.1137E-05   89.998
    22    1   0.0000   0.0000   0.0058  0.00097   2.2784E-09  7.3461E-05  7.3461E-05   89.998
    23    1   0.0000   0.0000   0.0068  0.00097   2.1455E-09  6.5897E-05  6.5897E-05   89.998
    24    1   0.0000   0.0000   0.0077  0.00097   1.9915E-09  5.8408E-05  5.8408E-05   89.998
    25    1   0.0000   0.0000   0.0087  0.00097   1.8157E-09  5.0963E-05  5.0963E-05   89.998
    26    1   0.0000   0.0000   0.0097  0.00097   1.6176E-09  4.3535E-05  4.3535E-05   89.998
    27    1   0.0000   0.0000   0.0107  0.00097   1.3962E-09  3.6094E-05  3.6094E-05   89.998
    28    1   0.0000   0.0000   0.0116  0.00097   1.1501E-09  2.8606E-05  2.8606E-05   89.998
    29    1   0.0000   0.0000   0.0126  0.00097   8.7714E-10  2.1019E-05  2.1019E-05   89.998
    30    1   0.0000   0.0000   0.0136  0.00097   5.7274E-10  1.3240E-05  1.3240E-05   89.998
    31    1   0.0000   0.0000   0.0145  0.00097   2.1915E-10  4.8950E-06  4.8950E-06   89.997



                                        - - - POWER BUDGET - - -

                                           INPUT POWER   = 1.3215E-09 WATTS
                                           RADIATED POWER= 1.3215E-09 WATTS
                                           STRUCTURE LOSS= 0.0000E+00 WATTS
                                           NETWORK LOSS  = 0.0000E+00 WATTS
                                           EFFICIENCY    = 100.00 PERCENT



                                                - - - RADIATION PATTERNS - - -

  - - ANGLES - -           - POWER GAINS -       - - - POLARIZATION - - -    - - - E(THETA) - - -    - - - E(PHI) - - -
  THETA     PHI        VERT.   HOR.    TOTAL      AXIAL     TILT   SENSE     MAGNITUDE    PHASE      MAGNITUDE    PHASE 
 DEGREES  DEGREES       DB      DB      DB        RATIO     DEG.              VOLTS/M    DEGREES      VOLTS/M    DEGREES
   90.00     0.00       1.76 -999.99    1.76    0.00000     0.00  LINEAR    3.44743E-04   180.00    0.00000E+00     0.00




                                 - - - - - - FREQUENCY - - - - - -

                                    FREQUENCY= 4.0000E+01 MHZ
                                    WAVELENGTH= 7.4950E+00 METERS




                    APPROXIMATE INTEGRATION EMPLOYED FOR SEGMENTS MORE THAN   1.000 WAVELENGTHS APART



                               - - - STRUCTURE IMPEDANCE LOADING - - -

                                   THIS STRUCTURE IS NOT LOADED



                                  - - - ANTENNA ENVIRONMENT - - -

                                            FREE SPACE



                                - - - MATRIX TIMING - - -

                        FILL=    0.000 SEC.,  FACTOR=    0.000 SEC.



                                          - - - ANTENNA INPUT PARAMETERS - - -

   TAG   SEG.    VOLTAGE (VOLTS)         CURRENT (AMPS)         IMPEDANCE (OHMS)        ADMITTANCE (MHOS)      POWER
   NO.   NO.    REAL        IMAG.       REAL        IMAG.       REAL        IMAG.       REAL        IMAG.     (WATTS)
     1    16 1.00000E+00 0.00000E+00 8.40550E-09 1.64733E-04 3.09743E-01-6.07042E+03 8.40550E-09 1.64733E-04 4.20275E-09



                             - - - CURRENTS AND LOCATION - - -

                                 DISTANCES IN WAVELENGTHS


  SEG.  TAG    COORD. OF SEG. CENTER     SEG.            - - - CURRENT (AMPS) - - -
  NO.   NO.     X        Y        Z      LENGTH     REAL        IMAG.       MAG.        PHASE
     1    1   0.0000   0.0000  -0.0194  0.00129   6.9649E-10  6.5531E-06  6.5531E-06   89.994
     2    1   0.0000   0.0000  -0.0181  0.00129   1.8204E-09  1.7724E-05  1.7724E-05   89.994
     3    1   0.0000   0.0000  -0.0168  0.00129   2.7881E-09  2.8137E-05  2.8137E-05   89.994
     4    1   0.0000   0.0000  -0.0155  0.00129   3.6561E-09  3.8291E-05  3.8291E-05   89.995
     5    1   0.0000   0.0000  -0.0142  0.00129   4.4385E-09  4.8312E-05  4.8312E-05   89.995
     6    1   0.0000   0.0000  -0.0129  0.00129   5.1427E-09  5.8268E-05  5.8268E-05   89.995
     7    1   0.0000   0.0000  -0.0116  0.00129   5.7730E-09  6.8204E-05  6.8204E-05   89.995
     8    1   0.0000   0.0000  -0.0103  0.00129   6.3322E-09  7.8160E-05  7.8160E-05   89.995
     9    1   0.0000   0.0000  -0.0090  0.00129   6.8223E-09  8.8173E-05  8.8173E-05   89.996
    10    1   0.0000   0.0000  -0.0077  0.00129   7.2449E-09  9.8283E-05  9.8283E-05   89.996
    11    1   0.0000   0.0000  -0.0065  0.00129   7.6009E-09  1.0854E-04  1.0854E-04   89.996
    12    1   0.0000   0.0000  -0.0052  0.00129   7.8913E-09  1.1901E-04  1.1901E-04   89.996
    13    1   0.0000   0.0000  -0.0039  0.00129   8.1166E-09  1.2981E-04  1.2981E-04   89.996
    14    1   0.0000   0.0000  -0.0026  0.00129   8.2772E-09  1.4114E-04  1.4114E-04   89.997
    15    1   0.0000   0.0000  -0.0013  0.00129   8.3734E-09  1.5362E-04  1.5362E-04   89.997
    16    1   0.0000   0.0000   0.0000  0.00129   8.4055E-09  1.6473E-04  1.6473E-04   89.997
    17    1   0.0000   0.0000   0.0013  0.00129   8.3734E-09  1.5362E-04  1.5362E-04   89.997
    18    1   0.0000   0.0000   0.0026  0.00129   8.2772E-09  1.4114E-04  1.4114E-04   89.997
    19    1   0.0000   0.0000   0.0039  0.00129   8.1166E-09  1.2981E-04  1.2981E-04   89.996
    20    1   0.0000   0.0000   0.0052  0.00129   7.8913E-09  1.1901E-04  1.1901E-04   89.996
    21    1   0.0000   0.0000   0.0065  0.00129   7.6009E-09  1.0854E-04  1.0854E-04   89.996
    22    1   0.0000   0.0000   0.0077  0.00129   7.2449E-09  9.8283E-05  9.8283E-05   89.996
    23    1   0.0000   0.0000   0.0090  0.00129   6.8223E-09  8.8173E-05  8.8173E-05   89.996
    24    1   0.0000   0.0000   0.0103  0.00129   6.3322E-09  7.8160E-05  7.8160E-05   89.995
    25    1   0.0000   0.0000   0.0116  0.00129   5.7730E-09  6.8204E-05  6.8204E-05   89.995
    26    1   0.0000   0.0000   0.0129  0.00129   5.1427E-09  5.8268E-05  5.8268E-05   89.995
    27    1   0.0000   0.0000   0.0142  0.00129   4.4385E-09  4.8312E-05  4.8312E-05   89.995
    28    1   0.0000   0.0000   0.0155  0.00129   3.6561E-09  3.8291E-05  3.8291E-05   89.995
    29    1   0.0000   0.0000   0.0168  0.00129   2.7881E-09  2.8137E-05  2.8137E-05   89.994
    30    1   0.0000   0.0000   0.0181  0.00129   1.8204E-09  1.7724E-05  1.7724E-05   89.994
    31    1   0.0000   0.0000   0.0194  0.00129   6.9649E-10  6.5531E-06  6.5531E-06   89.994



                                        - - - POWER BUDGET - - -

                                           INPUT POWER   = 4.2028E-09 WATTS
                                           RADIATED POWER= 4.2028E-09 WATTS
                                           STRUCTURE LOSS= 0.0000E+00 WATTS
                                           NETWORK LOSS  = 0.0000E+00 WATTS
                                           EFFICIENCY    = 100.00 PERCENT



                                                - - - RADIATION PATTERNS - - -

  - - ANGLES - -           - POWER GAINS -       - - - POLARIZATION - - -    - - - E(THETA) - - -    - - - E(PHI) - - -
  THETA     PHI        VERT.   HOR.    TOTAL      AXIAL     TILT   SENSE     MAGNITUDE    PHASE      MAGNITUDE    PHASE 
 DEGREES  DEGREES       DB      DB      DB        RATIO     DEG.              VOLTS/M    DEGREES      VOLTS/M    DEGREES
   90.00     0.00       1.76 -999.99    1.76    0.00000     0.00  LINEAR    6.14859E-04   180.00    0.00000E+00     0.00




                                 - - - - - - FREQUENCY - - - - - -

                                    FREQUENCY= 5.0000E+01 MHZ
                                    WAVELENGTH= 5.9960E+00 METERS




                    APPROXIMATE INTEGRATION EMPLOYED FOR SEGMENTS MORE THAN   1.000 WAVELENGTHS APART



                               - - - STRUCTURE IMPEDANCE LOADING - - -

                                   THIS STRUCTURE IS NOT LOADED



                                  - - - ANTENNA ENVIRONMENT - - -

                                            FREE SPACE



                                - - - MATRIX TIMING - - -

                        FILL=    0.000 SEC.,  FACTOR=    0.000 SEC.



                                          - - - ANTENNA INPUT PARAMETERS - - -

   TAG   SEG.    VOLTAGE (VOLTS)         CURRENT (AMPS)         IMPEDANCE (OHMS)        ADMITTANCE (MHOS)      POWER
   NO.   NO.    REAL        IMAG.       REAL        IMAG.       REAL        IMAG.       REAL        IMAG.     (WATTS)
     1    16 1.00000E+00 0.00000E+00 2.06867E-08 2.06578E-04 4.84754E-01-4.84078E+03 2.06867E-08 2.06578E-04 1.03433E-08



                             - - - CURRENTS AND LOCATION - - -

                                 DISTANCES IN WAVELENGTHS


  SEG.  TAG    COORD. OF SEG. CENTER     SEG.            - - - CURRENT (AMPS) - - -
  NO.   NO.     X        Y        Z      LENGTH     REAL        IMAG.       MAG.        PHASE
     1    1   0.0000   0.0000  -0.0242  0.00161   1.7127E-09  8.2342E-06  8.2342E-06   89.988
     2    1   0.0000   0.0000  -0.0226  0.00161   4.4767E-09  2.2270E-05  2.2270E-05   89.988
     3    1   0.0000   0.0000  -0.0210  0.00161   6.8574E-09  3.5352E-05  3.5352E-05   89.989
     4    1   0.0000   0.0000  -0.0194  0.00161   8.9930E-09  4.8107E-05  4.8107E-05   89.989
     5    1   0.0000   0.0000  -0.0178  0.00161   1.0919E-08  6.0692E-05  6.0692E-05   89.990
     6    1   0.0000   0.0000  -0.0161  0.00161   1.2652E-08  7.3192E-05  7.3192E-05   89.990
     7    1   0.0000   0.0000  -0.0145  0.00161   1.4203E-08  8.5665E-05  8.5665E-05   89.991
     8    1   0.0000   0.0000  -0.0129  0.00161   1.5580E-08  9.8158E-05  9.8158E-05   89.991
     9    1   0.0000   0.0000  -0.0113  0.00161   1.6787E-08  1.1072E-04  1.1072E-04   89.991
    10    1   0.0000   0.0000  -0.0097  0.00161   1.7828E-08  1.2339E-04  1.2339E-04   89.992
    11    1   0.0000   0.0000  -0.0081  0.00161   1.8705E-08  1.3625E-04  1.3625E-04   89.992
    12    1   0.0000   0.0000  -0.0065  0.00161   1.9420E-08  1.4937E-04  1.4937E-04   89.993
    13    1   0.0000   0.0000  -0.0048  0.00161   1.9975E-08  1.6289E-04  1.6289E-04   89.993
    14    1   0.0000   0.0000  -0.0032  0.00161   2.0371E-08  1.7707E-04  1.7707E-04   89.993
    15    1   0.0000   0.0000  -0.0016  0.00161   2.0608E-08  1.9269E-04  1.9269E-04   89.994
    16    1   0.0000   0.0000   0.0000  0.00161   2.0687E-08  2.0658E-04  2.0658E-04   89.994
    17    1   0.0000   0.0000   0.0016  0.00161   2.0608E-08  1.9269E-04  1.9269E-04   89.994
    18    1   0.0000   0.0000   0.0032  0.00161   2.0371E-08  1.7707E-04  1.7707E-04   89.993
    19    1   0.0000   0.0000   0.0048  0.00161   1.9975E-08  1.6289E-04  1.6289E-04   89.993
    20    1   0.0000   0.0000   0.0065  0.00161   1.9420E-08  1.4937E-04  1.4937E-04   89.993
    21    1   0.0000   0.0000   0.0081  0.00161   1.8705E-08  1.3625E-04  1.3625E-04   89.992
    22    1   0.0000   0.0000   0.0097  0.00161   1.7828E-08  1.2339E-04  1.2339E-04   89.992
    23    1   0.0000   0.0000   0.0113  0.00161   1.6787E-08  1.1072E-04  1.1072E-04   89.991
    24    1   0.0000   0.0000   0.0129  0.00161   1.5580E-08  9.8158E-05  9.8158E-05   89.991
    25    1   0.0000   0.0000   0.0145  0.00161   1.4203E-08  8.5665E-05  8.5665E-05   89.991
    26    1   0.0000   0.0000   0.0161  0.00161   1.2652E-08  7.3192E-05  7.3192E-05   89.990
    27    1   0.0000   0.0000   0.0178  0.00161   1.0919E-08  6.0692E-05  6.0692E-05   89.990
    28    1   0.0000   0.0000   0.0194  0.00161   8.9930E-09  4.8107E-05  4.8107E-05   89.989
    29    1   0.0000   0.0000   0.0210  0.00161   6.8574E-09  3.5352E-05  3.5352E-05   89.989
    30    1   0.0000   0.0000   0.0226  0.00161   4.4767E-09  2.2270E-05  2.2270E-05   89.988
    31    1   0.0000   0.0000   0.0242  0.00161   1.7127E-09  8.2342E-06  8.2342E-06   89.988



                                        - - - POWER BUDGET - - -

                                           INPUT POWER   = 1.0343E-08 WATTS
                                           RADIATED POWER= 1.0343E-08 WATTS
                                           STRUCTURE LOSS= 0.0000E+00 WATTS
                                           NETWORK LOSS  = 0.0000E+00 WATTS
                                           EFFICIENCY    = 100.00 PERCENT



                                                - - - RADIATION PATTERNS - - -

  - - ANGLES - -           - POWER GAINS -       - - - POLARIZATION - - -    - - - E(THETA) - - -    - - - E(PHI) - - -
  THETA     PHI        VERT.   HOR.    TOTAL      AXIAL     TILT   SENSE     MAGNITUDE    PHASE      MAGNITUDE    PHASE 
 DEGREES  DEGREES       DB      DB      DB        RATIO     DEG.              VOLTS/M    DEGREES      VOLTS/M    DEGREES
   90.00     0.00       1.76 -999.99    1.76    0.00000     0.00  LINEAR    9.64728E-04   179.99    0.00000E+00     0.00




                                 - - - - - - FREQUENCY - - - - - -

                                    FREQUENCY= 6.0000E+01 MHZ
                                    WAVELENGTH= 4.9967E+00 METERS




                    APPROXIMATE INTEGRATION EMPLOYED FOR SEGMENTS MORE THAN   1.000 WAVELENGTHS APART



                               - - - STRUCTURE IMPEDANCE LOADING - - -

                                   THIS STRUCTURE IS NOT LOADED



                                  - - - ANTENNA ENVIRONMENT - - -

                                            FREE SPACE



                                - - - MATRIX TIMING - - -

                        FILL=    0.016 SEC.,  FACTOR=    0.000 SEC.



                                          - - - ANTENNA INPUT PARAMETERS - - -

   TAG   SEG.    VOLTAGE (VOLTS)         CURRENT (AMPS)         IMPEDANCE (OHMS)        ADMITTANCE (MHOS)      POWER
   NO.   NO.    REAL        IMAG.       REAL        IMAG.       REAL        IMAG.       REAL        IMAG.     (WATTS)
     1    16 1.00000E+00 0.00000E+00 4.33207E-08 2.48873E-04 6.99423E-01-4.01811E+03 4.33207E-08 2.48873E-04 2.16604E-08



                             - - - CURRENTS AND LOCATION - - -

                                 DISTANCES IN WAVELENGTHS


  SEG.  TAG    COORD. OF SEG. CENTER     SEG.            - - - CURRENT (AMPS) - - -
  NO.   NO.     X        Y        Z      LENGTH     REAL        IMAG.       MAG.        PHASE
     1    1   0.0000   0.0000  -0.0291  0.00194   3.5828E-09  9.9444E-06  9.9445E-06   89.979
     2    1   0.0000   0.0000  -0.0271  0.00194   9.3663E-09  2.6894E-05  2.6894E-05   89.980
     3    1   0.0000   0.0000  -0.0252  0.00194   1.4349E-08  4.2690E-05  4.2690E-05   89.981
     4    1   0.0000   0.0000  -0.0232  0.00194   1.8820E-08  5.8088E-05  5.8088E-05   89.981
     5    1   0.0000   0.0000  -0.0213  0.00194   2.2852E-08  7.3277E-05  7.3277E-05   89.982
     6    1   0.0000   0.0000  -0.0194  0.00194   2.6482E-08  8.8359E-05  8.8359E-05   89.983
     7    1   0.0000   0.0000  -0.0174  0.00194   2.9733E-08  1.0340E-04  1.0340E-04   89.984
     8    1   0.0000   0.0000  -0.0155  0.00194   3.2618E-08  1.1847E-04  1.1847E-04   89.984
     9    1   0.0000   0.0000  -0.0136  0.00194   3.5147E-08  1.3360E-04  1.3360E-04   89.985
    10    1   0.0000   0.0000  -0.0116  0.00194   3.7328E-08  1.4888E-04  1.4888E-04   89.986
    11    1   0.0000   0.0000  -0.0097  0.00194   3.9166E-08  1.6435E-04  1.6435E-04   89.986
    12    1   0.0000   0.0000  -0.0077  0.00194   4.0665E-08  1.8014E-04  1.8014E-04   89.987
    13    1   0.0000   0.0000  -0.0058  0.00194   4.1828E-08  1.9640E-04  1.9640E-04   89.988
    14    1   0.0000   0.0000  -0.0039  0.00194   4.2658E-08  2.1345E-04  2.1345E-04   89.989
    15    1   0.0000   0.0000  -0.0019  0.00194   4.3155E-08  2.3220E-04  2.3220E-04   89.989
    16    1   0.0000   0.0000   0.0000  0.00194   4.3321E-08  2.4887E-04  2.4887E-04   89.990
    17    1   0.0000   0.0000   0.0019  0.00194   4.3155E-08  2.3220E-04  2.3220E-04   89.989
    18    1   0.0000   0.0000   0.0039  0.00194   4.2658E-08  2.1345E-04  2.1345E-04   89.989
    19    1   0.0000   0.0000   0.0058  0.00194   4.1828E-08  1.9640E-04  1.9640E-04   89.988
    20    1   0.0000   0.0000   0.0077  0.00194   4.0665E-08  1.8014E-04  1.8014E-04   89.987
    21    1   0.0000   0.0000   0.0097  0.00194   3.9166E-08  1.6435E-04  1.6435E-04   89.986
    22    1   0.0000   0.0000   0.0116  0.00194   3.7328E-08  1.4888E-04  1.4888E-04   89.986
    23    1   0.0000   0.0000   0.0136  0.00194   3.5147E-08  1.3360E-04  1.3360E-04   89.985
    24    1   0.0000   0.0000   0.0155  0.00194   3.2618E-08  1.1847E-04  1.1847E-04   89.984
    25    1   0.0000   0.0000   0.0174  0.00194   2.9733E-08  1.0340E-04  1.0340E-04   89.984
    26    1   0.0000   0.0000   0.0194  0.00194   2.6482E-08  8.8359E-05  8.8359E-05   89.983
    27    1   0.0000   0.0000   0.0213  0.00194   2.2852E-08  7.3277E-05  7.3277E-05   89.982
    28    1   0.0000   0.0000   0.0232  0.00194   1.8820E-08  5.8088E-05  5.8088E-05   89.981
    29    1   0.0000   0.0000   0.0252  0.00194   1.4349E-08  4.2690E-05  4.2690E-05   89.981
    30    1   0.0000   0.0000   0.0271  0.00194   9.3663E-09  2.6894E-05  2.6894E-05   89.980
    31    1   0.0000   0.0000   0.0291  0.00194   3.5828E-09  9.9444E-06  9.9445E-06   89.979



                                        - - - POWER BUDGET - - -

                                           INPUT POWER   = 2.1660E-08 WATTS
                                           RADIATED POWER= 2.1660E-08 WATTS
                                           STRUCTURE LOSS= 0.0000E+00 WATTS
                                           NETWORK LOSS  = 0.0000E+00 WATTS
                                           EFFICIENCY    = 100.00 PERCENT



                                                - - - RADIATION PATTERNS - - -

  - - ANGLES - -           - POWER GAINS -       - - - POLARIZATION - - -    - - - E(THETA) - - -    - - - E(PHI) - - -
  THETA     PHI        VERT.   HOR.    TOTAL      AXIAL     TILT   SENSE     MAGNITUDE    PHASE      MAGNITUDE    PHASE 
 DEGREES  DEGREES       DB      DB      DB        RATIO     DEG.              VOLTS/M    DEGREES      VOLTS/M    DEGREES
   90.00     0.00       1.76 -999.99    1.76    0.00000     0.00  LINEAR    1.39633E-03   179.99    0.00000E+00     0.00




                                 - - - - - - FREQUENCY - - - - - -

                                    FREQUENCY= 7.0000E+01 MHZ
                                    WAVELENGTH= 4.2829E+00 METERS




                    APPROXIMATE INTEGRATION EMPLOYED FOR SEGMENTS MORE THAN   1.000 WAVELENGTHS APART



                               - - - STRUCTURE IMPEDANCE LOADING - - -

                                   THIS STRUCTURE IS NOT LOADED



                                  - - - ANTENNA ENVIRONMENT - - -

                                            FREE SPACE



                                - - - MATRIX TIMING - - -

                        FILL=    0.000 SEC.,  FACTOR=    0.000 SEC.



                                          - - - ANTENNA INPUT PARAMETERS - - -

   TAG   SEG.    VOLTAGE (VOLTS)         CURRENT (AMPS)         IMPEDANCE (OHMS)        ADMITTANCE (MHOS)      POWER
   NO.   NO.    REAL        IMAG.       REAL        IMAG.       REAL        IMAG.       REAL        IMAG.     (WATTS)
     1    16 1.00000E+00 0.00000E+00 8.12021E-08 2.91716E-04 9.54217E-01-3.42799E+03 8.12021E-08 2.91716E-04 4.06010E-08



                             - - - CURRENTS AND LOCATION - - -

                                 DISTANCES IN WAVELENGTHS


  SEG.  TAG    COORD. OF SEG. CENTER     SEG.            - - - CURRENT (AMPS) - - -
  NO.   NO.     X        Y        Z      LENGTH     REAL        IMAG.       MAG.        PHASE
     1    1   0.0000   0.0000  -0.0339  0.00226   6.7074E-09  1.1690E-05  1.1690E-05   89.967
     2    1   0.0000   0.0000  -0.0316  0.00226   1.7538E-08  3.1614E-05  3.1614E-05   89.968
     3    1   0.0000   0.0000  -0.0294  0.00226   2.6871E-08  5.0178E-05  5.0178E-05   89.969
     4    1   0.0000   0.0000  -0.0271  0.00226   3.5249E-08  6.8271E-05  6.8271E-05   89.970
     5    1   0.0000   0.0000  -0.0249  0.00226   4.2806E-08  8.6113E-05  8.6113E-05   89.972
     6    1   0.0000   0.0000  -0.0226  0.00226   4.9612E-08  1.0382E-04  1.0382E-04   89.973
     7    1   0.0000   0.0000  -0.0203  0.00226   5.5708E-08  1.2148E-04  1.2148E-04   89.974
     8    1   0.0000   0.0000  -0.0181  0.00226   6.1118E-08  1.3916E-04  1.3916E-04   89.975
     9    1   0.0000   0.0000  -0.0158  0.00226   6.5863E-08  1.5691E-04  1.5691E-04   89.976
    10    1   0.0000   0.0000  -0.0136  0.00226   6.9955E-08  1.7480E-04  1.7480E-04   89.977
    11    1   0.0000   0.0000  -0.0113  0.00226   7.3404E-08  1.9293E-04  1.9293E-04   89.978
    12    1   0.0000   0.0000  -0.0090  0.00226   7.6218E-08  2.1141E-04  2.1141E-04   89.979
    13    1   0.0000   0.0000  -0.0068  0.00226   7.8401E-08  2.3044E-04  2.3044E-04   89.981
    14    1   0.0000   0.0000  -0.0045  0.00226   7.9958E-08  2.5036E-04  2.5036E-04   89.982
    15    1   0.0000   0.0000  -0.0023  0.00226   8.0891E-08  2.7225E-04  2.7225E-04   89.983
    16    1   0.0000   0.0000   0.0000  0.00226   8.1202E-08  2.9172E-04  2.9172E-04   89.984
    17    1   0.0000   0.0000   0.0023  0.00226   8.0891E-08  2.7225E-04  2.7225E-04   89.983
    18    1   0.0000   0.0000   0.0045  0.00226   7.9958E-08  2.5036E-04  2.5036E-04   89.982
    19    1   0.0000   0.0000   0.0068  0.00226   7.8401E-08  2.3044E-04  2.3044E-04   89.981
    20    1   0.0000   0.0000   0.0090  0.00226   7.6218E-08  2.1141E-04  2.1141E-04   89.979
    21    1   0.0000   0.0000   0.0113  0.00226   7.3404E-08  1.9293E-04  1.9293E-04   89.978
    22    1   0.0000   0.0000   0.0136  0.00226   6.9955E-08  1.7480E-04  1.7480E-04   89.977
    23    1   0.0000   0.0000   0.0158  0.00226   6.5863E-08  1.5691E-04  1.5691E-04   89.976
    24    1   0.0000   0.0000   0.0181  0.00226   6.1118E-08  1.3916E-04  1.3916E-04   89.975
    25    1   0.0000   0.0000   0.0203  0.00226   5.5708E-08  1.2148E-04  1.2148E-04   89.974
    26    1   0.0000   0.0000   0.0226  0.00226   4.9612E-08  1.0382E-04  1.0382E-04   89.973
    27    1   0.0000   0.0000   0.0249  0.00226   4.2806E-08  8.6113E-05  8.6113E-05   89.972
    28    1   0.0000   0.0000   0.0271  0.00226   3.5249E-08  6.8271E-05  6.8271E-05   89.970
    29    1   0.0000   0.0000   0.0294  0.00226   2.6871E-08  5.0178E-05  5.0178E-05   89.969
    30    1   0.0000   0.0000   0.0316  0.00226   1.7538E-08  3.1614E-05  3.1614E-05   89.968
    31    1   0.0000   0.0000   0.0339  0.00226   6.7074E-09  1.1690E-05  1.1690E-05   89.967



                                        - - - POWER BUDGET - - -

                                           INPUT POWER   = 4.0601E-08 WATTS
                                           RADIATED POWER= 4.0601E-08 WATTS
                                           STRUCTURE LOSS= 0.0000E+00 WATTS
                                           NETWORK LOSS  = 0.0000E+00 WATTS
                                           EFFICIENCY    = 100.00 PERCENT



                                                - - - RADIATION PATTERNS - - -

  - - ANGLES - -           - POWER GAINS -       - - - POLARIZATION - - -    - - - E(THETA) - - -    - - - E(PHI) - - -
  THETA     PHI        VERT.   HOR.    TOTAL      AXIAL     TILT   SENSE     MAGNITUDE    PHASE      MAGNITUDE    PHASE 
 DEGREES  DEGREES       DB      DB      DB        RATIO     DEG.              VOLTS/M    DEGREES      VOLTS/M    DEGREES
   90.00     0.00       1.77 -999.99    1.77    0.00000     0.00  LINEAR    1.91214E-03   179.98    0.00000E+00     0.00




                                 - - - - - - FREQUENCY - - - - - -

                                    FREQUENCY= 8.0000E+01 MHZ
                                    WAVELENGTH= 3.7475E+00 METERS




                    APPROXIMATE INTEGRATION EMPLOYED FOR SEGMENTS MORE THAN   1.000 WAVELENGTHS APART



                               - - - STRUCTURE IMPEDANCE LOADING - - -

                                   THIS STRUCTURE IS NOT LOADED



                                  - - - ANTENNA ENVIRONMENT - - -

                                            FREE SPACE



                                - - - MATRIX TIMING - - -

                        FILL=    0.000 SEC.,  FACTOR=    0.000 SEC.



                                          - - - ANTENNA INPUT PARAMETERS - - -

   TAG   SEG.    VOLTAGE (VOLTS)         CURRENT (AMPS)         IMPEDANCE (OHMS)        ADMITTANCE (MHOS)      POWER
   NO.   NO.    REAL        IMAG.       REAL        IMAG.       REAL        IMAG.       REAL        IMAG.     (WATTS)
     1    16 1.00000E+00 0.00000E+00 1.40423E-07 3.35210E-04 1.24969E+00-2.98320E+03 1.40423E-07 3.35210E-04 7.02113E-08



                             - - - CURRENTS AND LOCATION - - -

                                 DISTANCES IN WAVELENGTHS


  SEG.  TAG    COORD. OF SEG. CENTER     SEG.            - - - CURRENT (AMPS) - - -
  NO.   NO.     X        Y        Z      LENGTH     REAL        IMAG.       MAG.        PHASE
     1    1   0.0000   0.0000  -0.0387  0.00258   1.1582E-08  1.3478E-05  1.3478E-05   89.951
     2    1   0.0000   0.0000  -0.0362  0.00258   3.0290E-08  3.6446E-05  3.6446E-05   89.952
     3    1   0.0000   0.0000  -0.0336  0.00258   4.6419E-08  5.7844E-05  5.7844E-05   89.954
     4    1   0.0000   0.0000  -0.0310  0.00258   6.0900E-08  7.8693E-05  7.8693E-05   89.956
     5    1   0.0000   0.0000  -0.0284  0.00258   7.3968E-08  9.9246E-05  9.9246E-05   89.957
     6    1   0.0000   0.0000  -0.0258  0.00258   8.5740E-08  1.1964E-04  1.1964E-04   89.959
     7    1   0.0000   0.0000  -0.0232  0.00258   9.6285E-08  1.3997E-04  1.3997E-04   89.961
     8    1   0.0000   0.0000  -0.0207  0.00258   1.0565E-07  1.6030E-04  1.6030E-04   89.962
     9    1   0.0000   0.0000  -0.0181  0.00258   1.1386E-07  1.8070E-04  1.8070E-04   89.964
    10    1   0.0000   0.0000  -0.0155  0.00258   1.2095E-07  2.0127E-04  2.0127E-04   89.966
    11    1   0.0000   0.0000  -0.0129  0.00258   1.2692E-07  2.2208E-04  2.2208E-04   89.967
    12    1   0.0000   0.0000  -0.0103  0.00258   1.3179E-07  2.4328E-04  2.4328E-04   89.969
    13    1   0.0000   0.0000  -0.0077  0.00258   1.3557E-07  2.6509E-04  2.6509E-04   89.971
    14    1   0.0000   0.0000  -0.0052  0.00258   1.3827E-07  2.8790E-04  2.8790E-04   89.972
    15    1   0.0000   0.0000  -0.0026  0.00258   1.3988E-07  3.1296E-04  3.1296E-04   89.974
    16    1   0.0000   0.0000   0.0000  0.00258   1.4042E-07  3.3521E-04  3.3521E-04   89.976
    17    1   0.0000   0.0000   0.0026  0.00258   1.3988E-07  3.1296E-04  3.1296E-04   89.974
    18    1   0.0000   0.0000   0.0052  0.00258   1.3827E-07  2.8790E-04  2.8790E-04   89.972
    19    1   0.0000   0.0000   0.0077  0.00258   1.3557E-07  2.6509E-04  2.6509E-04   89.971
    20    1   0.0000   0.0000   0.0103  0.00258   1.3179E-07  2.4328E-04  2.4328E-04   89.969
    21    1   0.0000   0.0000   0.0129  0.00258   1.2692E-07  2.2208E-04  2.2208E-04   89.967
    22    1   0.0000   0.0000   0.0155  0.00258   1.2095E-07  2.0127E-04  2.0127E-04   89.966
    23    1   0.0000   0.0000   0.0181  0.00258   1.1386E-07  1.8070E-04  1.8070E-04   89.964
    24    1   0.0000   0.0000   0.0207  0.00258   1.0565E-07  1.6030E-04  1.6030E-04   89.962
    25    1   0.0000   0.0000   0.0232  0.00258   9.6285E-08  1.3997E-04  1.3997E-04   89.961
    26    1   0.0000   0.0000   0.0258  0.00258   8.5740E-08  1.1964E-04  1.1964E-04   89.959
    27    1   0.0000   0.0000   0.0284  0.00258   7.3968E-08  9.9246E-05  9.9246E-05   89.957
    28    1   0.0000   0.0000   0.0310  0.00258   6.0900E-08  7.8693E-05  7.8693E-05   89.956
    29    1   0.0000   0.0000   0.0336  0.00258   4.6419E-08  5.7844E-05  5.7844E-05   89.954
    30    1   0.0000   0.0000   0.0362  0.00258   3.0290E-08  3.6446E-05  3.6446E-05   89.952
    31    1   0.0000   0.0000   0.0387  0.00258   1.1582E-08  1.3478E-05  1.3478E-05   89.951



                                        - - - POWER BUDGET - - -

                                           INPUT POWER   = 7.0211E-08 WATTS
                                           RADIATED POWER= 7.0211E-08 WATTS
                                           STRUCTURE LOSS= 0.0000E+00 WATTS
                                           NETWORK LOSS  = 0.0000E+00 WATTS
                                           EFFICIENCY    = 100.00 PERCENT



                                                - - - RADIATION PATTERNS - - -

  - - ANGLES - -           - POWER GAINS -       - - - POLARIZATION - - -    - - - E(THETA) - - -    - - - E(PHI) - - -
  THETA     PHI        VERT.   HOR.    TOTAL      AXIAL     TILT   SENSE     MAGNITUDE    PHASE      MAGNITUDE    PHASE 
 DEGREES  DEGREES       DB      DB      DB        RATIO     DEG.              VOLTS/M    DEGREES      VOLTS/M    DEGREES
   90.00     0.00       1.77 -999.99    1.77    0.00000     0.00  LINEAR    2.51515E-03   179.97    0.00000E+00     0.00




                                 - - - - - - FREQUENCY - - - - - -

                                    FREQUENCY= 9.0000E+01 MHZ
                                    WAVELENGTH= 3.3311E+00 METERS




                    APPROXIMATE INTEGRATION EMPLOYED FOR SEGMENTS MORE THAN   1.000 WAVELENGTHS APART



                               - - - STRUCTURE IMPEDANCE LOADING - - -

                                   THIS STRUCTURE IS NOT LOADED



                                  - - - ANTENNA ENVIRONMENT - - -

                                            FREE SPACE



                                - - - MATRIX TIMING - - -

                        FILL=    0.000 SEC.,  FACTOR=    0.000 SEC.



                                          - - - ANTENNA INPUT PARAMETERS - - -

   TAG   SEG.    VOLTAGE (VOLTS)         CURRENT (AMPS)         IMPEDANCE (OHMS)        ADMITTANCE (MHOS)      POWER
   NO.   NO.    REAL        IMAG.       REAL        IMAG.       REAL        IMAG.       REAL        IMAG.     (WATTS)
     1    16 1.00000E+00 0.00000E+00 2.28445E-07 3.79466E-04 1.58649E+00-2.63528E+03 2.28445E-07 3.79466E-04 1.14223E-07



                             - - - CURRENTS AND LOCATION - - -

                                 DISTANCES IN WAVELENGTHS


  SEG.  TAG    COORD. OF SEG. CENTER     SEG.            - - - CURRENT (AMPS) - - -
  NO.   NO.     X        Y        Z      LENGTH     REAL        IMAG.       MAG.        PHASE
     1    1   0.0000   0.0000  -0.0436  0.00291   1.8812E-08  1.5315E-05  1.5315E-05   89.930
     2    1   0.0000   0.0000  -0.0407  0.00291   4.9207E-08  4.1412E-05  4.1412E-05   89.932
     3    1   0.0000   0.0000  -0.0378  0.00291   7.5424E-08  6.5719E-05  6.5719E-05   89.934
     4    1   0.0000   0.0000  -0.0349  0.00291   9.8972E-08  8.9395E-05  8.9395E-05   89.937
     5    1   0.0000   0.0000  -0.0320  0.00291   1.2023E-07  1.1273E-04  1.1273E-04   89.939
     6    1   0.0000   0.0000  -0.0291  0.00291   1.3939E-07  1.3587E-04  1.3587E-04   89.941
     7    1   0.0000   0.0000  -0.0261  0.00291   1.5655E-07  1.5892E-04  1.5892E-04   89.944
     8    1   0.0000   0.0000  -0.0232  0.00291   1.7179E-07  1.8196E-04  1.8196E-04   89.946
     9    1   0.0000   0.0000  -0.0203  0.00291   1.8517E-07  2.0508E-04  2.0508E-04   89.948
    10    1   0.0000   0.0000  -0.0174  0.00291   1.9671E-07  2.2835E-04  2.2835E-04   89.951
    11    1   0.0000   0.0000  -0.0145  0.00291   2.0644E-07  2.5189E-04  2.5189E-04   89.953
    12    1   0.0000   0.0000  -0.0116  0.00291   2.1438E-07  2.7585E-04  2.7585E-04   89.955
    13    1   0.0000   0.0000  -0.0087  0.00291   2.2054E-07  3.0046E-04  3.0046E-04   89.958
    14    1   0.0000   0.0000  -0.0058  0.00291   2.2493E-07  3.2619E-04  3.2619E-04   89.960
    15    1   0.0000   0.0000  -0.0029  0.00291   2.2757E-07  3.5442E-04  3.5442E-04   89.963
    16    1   0.0000   0.0000   0.0000  0.00291   2.2845E-07  3.7947E-04  3.7947E-04   89.966
    17    1   0.0000   0.0000   0.0029  0.00291   2.2757E-07  3.5442E-04  3.5442E-04   89.963
    18    1   0.0000   0.0000   0.0058  0.00291   2.2493E-07  3.2619E-04  3.2619E-04   89.960
    19    1   0.0000   0.0000   0.0087  0.00291   2.2054E-07  3.0046E-04  3.0046E-04   89.958
    20    1   0.0000   0.0000   0.0116  0.00291   2.1438E-07  2.7585E-04  2.7585E-04   89.955
    21    1   0.0000   0.0000   0.0145  0.00291   2.0644E-07  2.5189E-04  2.5189E-04   89.953
    22    1   0.0000   0.0000   0.0174  0.00291   1.9671E-07  2.2835E-04  2.2835E-04   89.951
    23    1   0.0000   0.0000   0.0203  0.00291   1.8517E-07  2.0508E-04  2.0508E-04   89.948
    24    1   0.0000   0.0000   0.0232  0.00291   1.7179E-07  1.8196E-04  1.8196E-04   89.946
    25    1   0.0000   0.0000   0.0261  0.00291   1.5655E-07  1.5892E-04  1.5892E-04   89.944
    26    1   0.0000   0.0000   0.0291  0.00291   1.3939E-07  1.3587E-04  1.3587E-04   89.941
    27    1   0.0000   0.0000   0.0320  0.00291   1.2023E-07  1.1273E-04  1.1273E-04   89.939
    28    1   0.0000   0.0000   0.0349  0.00291   9.8972E-08  8.9395E-05  8.9395E-05   89.937
    29    1   0.0000   0.0000   0.0378  0.00291   7.5424E-08  6.5719E-05  6.5719E-05   89.934
    30    1   0.0000   0.0000   0.0407  0.00291   4.9207E-08  4.1412E-05  4.1412E-05   89.932
    31    1   0.0000   0.0000   0.0436  0.00291   1.8812E-08  1.5315E-05  1.5315E-05   89.930



                                        - - - POWER BUDGET - - -

                                           INPUT POWER   = 1.1422E-07 WATTS
                                           RADIATED POWER= 1.1422E-07 WATTS
                                           STRUCTURE LOSS= 0.0000E+00 WATTS
                                           NETWORK LOSS  = 0.0000E+00 WATTS
                                           EFFICIENCY    = 100.00 PERCENT



                                                - - - RADIATION PATTERNS - - -

  - - ANGLES - -           - POWER GAINS -       - - - POLARIZATION - - -    - - - E(THETA) - - -    - - - E(PHI) - - -
  THETA     PHI        VERT.   HOR.    TOTAL      AXIAL     TILT   SENSE     MAGNITUDE    PHASE      MAGNITUDE    PHASE 
 DEGREES  DEGREES       DB      DB      DB        RATIO     DEG.              VOLTS/M    DEGREES      VOLTS/M    DEGREES
   90.00     0.00       1.77 -999.99    1.77    0.00000     0.00  LINEAR    3.20894E-03   179.95    0.00000E+00     0.00




                                 - - - - - - FREQUENCY - - - - - -

                                    FREQUENCY= 1.0000E+02 MHZ
                                    WAVELENGTH= 2.9980E+00 METERS




                    APPROXIMATE INTEGRATION EMPLOYED FOR SEGMENTS MORE THAN   1.000 WAVELENGTHS APART



                               - - - STRUCTURE IMPEDANCE LOADING - - -

                                   THIS STRUCTURE IS NOT LOADED



                                  - - - ANTENNA ENVIRONMENT - - -

                                            FREE SPACE



                                - - - MATRIX TIMING - - -

                        FILL=    0.000 SEC.,  FACTOR=    0.000 SEC.



                                          - - - ANTENNA INPUT PARAMETERS - - -

   TAG   SEG.    VOLTAGE (VOLTS)         CURRENT (AMPS)         IMPEDANCE (OHMS)        ADMITTANCE (MHOS)      POWER
   NO.   NO.    REAL        IMAG.       REAL        IMAG.       REAL        IMAG.       REAL        IMAG.     (WATTS)
     1    16 1.00000E+00 0.00000E+00 3.54322E-07 4.24599E-04 1.96535E+00-2.35516E+03 3.54322E-07 4.24599E-04 1.77161E-07



                             - - - CURRENTS AND LOCATION - - -

                                 DISTANCES IN WAVELENGTHS


  SEG.  TAG    COORD. OF SEG. CENTER     SEG.            - - - CURRENT (AMPS) - - -
  NO.   NO.     X        Y        Z      LENGTH     REAL        IMAG.       MAG.        PHASE
     1    1   0.0000   0.0000  -0.0484  0.00323   2.9125E-08  1.7210E-05  1.7210E-05   89.903
     2    1   0.0000   0.0000  -0.0452  0.00323   7.6201E-08  4.6530E-05  4.6530E-05   89.906
     3    1   0.0000   0.0000  -0.0420  0.00323   1.1682E-07  7.3834E-05  7.3834E-05   89.909
     4    1   0.0000   0.0000  -0.0387  0.00323   1.5333E-07  1.0042E-04  1.0042E-04   89.913
     5    1   0.0000   0.0000  -0.0355  0.00323   1.8630E-07  1.2661E-04  1.2661E-04   89.916
     6    1   0.0000   0.0000  -0.0323  0.00323   2.1602E-07  1.5257E-04  1.5257E-04   89.919
     7    1   0.0000   0.0000  -0.0291  0.00323   2.4265E-07  1.7842E-04  1.7842E-04   89.922
     8    1   0.0000   0.0000  -0.0258  0.00323   2.6632E-07  2.0424E-04  2.0424E-04   89.925
     9    1   0.0000   0.0000  -0.0226  0.00323   2.8709E-07  2.3012E-04  2.3012E-04   89.929
    10    1   0.0000   0.0000  -0.0194  0.00323   3.0501E-07  2.5616E-04  2.5616E-04   89.932
    11    1   0.0000   0.0000  -0.0161  0.00323   3.2012E-07  2.8247E-04  2.8247E-04   89.935
    12    1   0.0000   0.0000  -0.0129  0.00323   3.3246E-07  3.0922E-04  3.0922E-04   89.938
    13    1   0.0000   0.0000  -0.0097  0.00323   3.4203E-07  3.3668E-04  3.3668E-04   89.942
    14    1   0.0000   0.0000  -0.0065  0.00323   3.4886E-07  3.6534E-04  3.6534E-04   89.945
    15    1   0.0000   0.0000  -0.0032  0.00323   3.5296E-07  3.9675E-04  3.9675E-04   89.949
    16    1   0.0000   0.0000   0.0000  0.00323   3.5432E-07  4.2460E-04  4.2460E-04   89.952
    17    1   0.0000   0.0000   0.0032  0.00323   3.5296E-07  3.9675E-04  3.9675E-04   89.949
    18    1   0.0000   0.0000   0.0065  0.00323   3.4886E-07  3.6534E-04  3.6534E-04   89.945
    19    1   0.0000   0.0000   0.0097  0.00323   3.4203E-07  3.3668E-04  3.3668E-04   89.942
    20    1   0.0000   0.0000   0.0129  0.00323   3.3246E-07  3.0922E-04  3.0922E-04   89.938
    21    1   0.0000   0.0000   0.0161  0.00323   3.2012E-07  2.8247E-04  2.8247E-04   89.935
    22    1   0.0000   0.0000   0.0194  0.00323   3.0501E-07  2.5616E-04  2.5616E-04   89.932
    23    1   0.0000   0.0000   0.0226  0.00323   2.8709E-07  2.3012E-04  2.3012E-04   89.929
    24    1   0.0000   0.0000   0.0258  0.00323   2.6632E-07  2.0424E-04  2.0424E-04   89.925
    25    1   0.0000   0.0000   0.0291  0.00323   2.4265E-07  1.7842E-04  1.7842E-04   89.922
    26    1   0.0000   0.0000   0.0323  0.00323   2.1602E-07  1.5257E-04  1.5257E-04   89.919
    27    1   0.0000   0.0000   0.0355  0.00323   1.8630E-07  1.2661E-04  1.2661E-04   89.916
    28    1   0.0000   0.0000   0.0387  0.00323   1.5333E-07  1.0042E-04  1.0042E-04   89.913
    29    1   0.0000   0.0000   0.0420  0.00323   1.1682E-07  7.3834E-05  7.3834E-05   89.909
    30    1   0.0000   0.0000   0.0452  0.00323   7.6201E-08  4.6530E-05  4.6530E-05   89.906
    31    1   0.0000   0.0000   0.0484  0.00323   2.9125E-08  1.7210E-05  1.7210E-05   89.903



                                        - - - POWER BUDGET - - -

                                           INPUT POWER   = 1.7716E-07 WATTS
                                           RADIATED POWER= 1.7716E-07 WATTS
                                           STRUCTURE LOSS= 0.0000E+00 WATTS
                                           NETWORK LOSS  = 0.0000E+00 WATTS
                                           EFFICIENCY    = 100.00 PERCENT



                                                - - - RADIATION PATTERNS - - -

  - - ANGLES - -           - POWER GAINS -       - - - POLARIZATION - - -    - - - E(THETA) - - -    - - - E(PHI) - - -
  THETA     PHI        VERT.   HOR.    TOTAL      AXIAL     TILT   SENSE     MAGNITUDE    PHASE      MAGNITUDE    PHASE 
 DEGREES  DEGREES       DB      DB      DB        RATIO     DEG.              VOLTS/M    DEGREES      VOLTS/M    DEGREES
   90.00     0.00       1.77 -999.99    1.77    0.00000     0.00  LINEAR    3.99769E-03   179.93    0.00000E+00     0.00




                                 - - - - - - FREQUENCY - - - - - -

                                    FREQUENCY= 1.1000E+02 MHZ
                                    WAVELENGTH= 2.7255E+00 METERS




                    APPROXIMATE INTEGRATION EMPLOYED FOR SEGMENTS MORE THAN   1.000 WAVELENGTHS APART



                               - - - STRUCTURE IMPEDANCE LOADING - - -

                                   THIS STRUCTURE IS NOT LOADED



                                  - - - ANTENNA ENVIRONMENT - - -

                                            FREE SPACE



                                - - - MATRIX TIMING - - -

                        FILL=    0.000 SEC.,  FACTOR=    0.000 SEC.



                                          - - - ANTENNA INPUT PARAMETERS - - -

   TAG   SEG.    VOLTAGE (VOLTS)         CURRENT (AMPS)         IMPEDANCE (OHMS)        ADMITTANCE (MHOS)      POWER
   NO.   NO.    REAL        IMAG.       REAL        IMAG.       REAL        IMAG.       REAL        IMAG.     (WATTS)
     1    16 1.00000E+00 0.00000E+00 5.28967E-07 4.70736E-04 2.38711E+00-2.12433E+03 5.28967E-07 4.70736E-04 2.64483E-07



                             - - - CURRENTS AND LOCATION - - -

                                 DISTANCES IN WAVELENGTHS


  SEG.  TAG    COORD. OF SEG. CENTER     SEG.            - - - CURRENT (AMPS) - - -
  NO.   NO.     X        Y        Z      LENGTH     REAL        IMAG.       MAG.        PHASE
     1    1   0.0000   0.0000  -0.0533  0.00355   4.3394E-08  1.9169E-05  1.9169E-05   89.870
     2    1   0.0000   0.0000  -0.0497  0.00355   1.1356E-07  5.1824E-05  5.1824E-05   89.874
     3    1   0.0000   0.0000  -0.0462  0.00355   1.7415E-07  8.2224E-05  8.2224E-05   89.879
     4    1   0.0000   0.0000  -0.0426  0.00355   2.2861E-07  1.1182E-04  1.1182E-04   89.883
     5    1   0.0000   0.0000  -0.0391  0.00355   2.7782E-07  1.4095E-04  1.4095E-04   89.887
     6    1   0.0000   0.0000  -0.0355  0.00355   3.2220E-07  1.6982E-04  1.6982E-04   89.891
     7    1   0.0000   0.0000  -0.0320  0.00355   3.6200E-07  1.9854E-04  1.9854E-04   89.896
     8    1   0.0000   0.0000  -0.0284  0.00355   3.9736E-07  2.2721E-04  2.2721E-04   89.900
     9    1   0.0000   0.0000  -0.0249  0.00355   4.2841E-07  2.5593E-04  2.5593E-04   89.904
    10    1   0.0000   0.0000  -0.0213  0.00355   4.5520E-07  2.8479E-04  2.8479E-04   89.908
    11    1   0.0000   0.0000  -0.0178  0.00355   4.7781E-07  3.1393E-04  3.1393E-04   89.913
    12    1   0.0000   0.0000  -0.0142  0.00355   4.9626E-07  3.4351E-04  3.4351E-04   89.917
    13    1   0.0000   0.0000  -0.0107  0.00355   5.1058E-07  3.7384E-04  3.7384E-04   89.922
    14    1   0.0000   0.0000  -0.0071  0.00355   5.2080E-07  4.0547E-04  4.0547E-04   89.926
    15    1   0.0000   0.0000  -0.0036  0.00355   5.2693E-07  4.4008E-04  4.4008E-04   89.931
    16    1   0.0000   0.0000   0.0000  0.00355   5.2897E-07  4.7074E-04  4.7074E-04   89.936
    17    1   0.0000   0.0000   0.0036  0.00355   5.2693E-07  4.4008E-04  4.4008E-04   89.931
    18    1   0.0000   0.0000   0.0071  0.00355   5.2080E-07  4.0547E-04  4.0547E-04   89.926
    19    1   0.0000   0.0000   0.0107  0.00355   5.1058E-07  3.7384E-04  3.7384E-04   89.922
    20    1   0.0000   0.0000   0.0142  0.00355   4.9626E-07  3.4351E-04  3.4351E-04   89.917
    21    1   0.0000   0.0000   0.0178  0.00355   4.7781E-07  3.1393E-04  3.1393E-04   89.913
    22    1   0.0000   0.0000   0.0213  0.00355   4.5520E-07  2.8479E-04  2.8479E-04   89.908
    23    1   0.0000   0.0000   0.0249  0.00355   4.2841E-07  2.5593E-04  2.5593E-04   89.904
    24    1   0.0000   0.0000   0.0284  0.00355   3.9736E-07  2.2721E-04  2.2721E-04   89.900
    25    1   0.0000   0.0000   0.0320  0.00355   3.6200E-07  1.9854E-04  1.9854E-04   89.896
    26    1   0.0000   0.0000   0.0355  0.00355   3.2220E-07  1.6982E-04  1.6982E-04   89.891
    27    1   0.0000   0.0000   0.0391  0.00355   2.7782E-07  1.4095E-04  1.4095E-04   89.887
    28    1   0.0000   0.0000   0.0426  0.00355   2.2861E-07  1.1182E-04  1.1182E-04   89.883
    29    1   0.0000   0.0000   0.0462  0.00355   1.7415E-07  8.2224E-05  8.2224E-05   89.879
    30    1   0.0000   0.0000   0.0497  0.00355   1.1356E-07  5.1824E-05  5.1824E-05   89.874
    31    1   0.0000   0.0000   0.0533  0.00355   4.3394E-08  1.9169E-05  1.9169E-05   89.870



                                        - - - POWER BUDGET - - -

                                           INPUT POWER   = 2.6448E-07 WATTS
                                           RADIATED POWER= 2.6448E-07 WATTS
                                           STRUCTURE LOSS= 0.0000E+00 WATTS
                                           NETWORK LOSS  = 0.0000E+00 WATTS
                                           EFFICIENCY    = 100.00 PERCENT



                                                - - - RADIATION PATTERNS - - -

  - - ANGLES - -           - POWER GAINS -       - - - POLARIZATION - - -    - - - E(THETA) - - -    - - - E(PHI) - - -
  THETA     PHI        VERT.   HOR.    TOTAL      AXIAL     TILT   SENSE     MAGNITUDE    PHASE      MAGNITUDE    PHASE 
 DEGREES  DEGREES       DB      DB      DB        RATIO     DEG.              VOLTS/M    DEGREES      VOLTS/M    DEGREES
   90.00     0.00       1.78 -999.99    1.78    0.00000     0.00  LINEAR    4.88629E-03   179.91    0.00000E+00     0.00




                                 - - - - - - FREQUENCY - - - - - -

                                    FREQUENCY= 1.2000E+02 MHZ
                                    WAVELENGTH= 2.4983E+00 METERS




                    APPROXIMATE INTEGRATION EMPLOYED FOR SEGMENTS MORE THAN   1.000 WAVELENGTHS APART



                               - - - STRUCTURE IMPEDANCE LOADING - - -

                                   THIS STRUCTURE IS NOT LOADED



                                  - - - ANTENNA ENVIRONMENT - - -

                                            FREE SPACE



                                - - - MATRIX TIMING - - -

                        FILL=    0.000 SEC.,  FACTOR=    0.000 SEC.



                                          - - - ANTENNA INPUT PARAMETERS - - -

   TAG   SEG.    VOLTAGE (VOLTS)         CURRENT (AMPS)         IMPEDANCE (OHMS)        ADMITTANCE (MHOS)      POWER
   NO.   NO.    REAL        IMAG.       REAL        IMAG.       REAL        IMAG.       REAL        IMAG.     (WATTS)
     1    16 1.00000E+00 0.00000E+00 7.65487E-07 5.18011E-04 2.85272E+00-1.93046E+03 7.65487E-07 5.18011E-04 3.82744E-07



                             - - - CURRENTS AND LOCATION - - -

                                 DISTANCES IN WAVELENGTHS


  SEG.  TAG    COORD. OF SEG. CENTER     SEG.            - - - CURRENT (AMPS) - - -
  NO.   NO.     X        Y        Z      LENGTH     REAL        IMAG.       MAG.        PHASE
     1    1   0.0000   0.0000  -0.0581  0.00387   6.2660E-08  2.1202E-05  2.1202E-05   89.831
     2    1   0.0000   0.0000  -0.0542  0.00387   1.6403E-07  5.7316E-05  5.7316E-05   89.836
     3    1   0.0000   0.0000  -0.0504  0.00387   2.5160E-07  9.0927E-05  9.0927E-05   89.841
     4    1   0.0000   0.0000  -0.0465  0.00387   3.3037E-07  1.2363E-04  1.2363E-04   89.847
     5    1   0.0000   0.0000  -0.0426  0.00387   4.0158E-07  1.5582E-04  1.5582E-04   89.852
     6    1   0.0000   0.0000  -0.0387  0.00387   4.6582E-07  1.8769E-04  1.8769E-04   89.858
     7    1   0.0000   0.0000  -0.0349  0.00387   5.2345E-07  2.1937E-04  2.1937E-04   89.863
     8    1   0.0000   0.0000  -0.0310  0.00387   5.7468E-07  2.5098E-04  2.5098E-04   89.869
     9    1   0.0000   0.0000  -0.0271  0.00387   6.1967E-07  2.8260E-04  2.8260E-04   89.874
    10    1   0.0000   0.0000  -0.0232  0.00387   6.5851E-07  3.1435E-04  3.1436E-04   89.880
    11    1   0.0000   0.0000  -0.0194  0.00387   6.9128E-07  3.4637E-04  3.4637E-04   89.886
    12    1   0.0000   0.0000  -0.0155  0.00387   7.1804E-07  3.7885E-04  3.7885E-04   89.891
    13    1   0.0000   0.0000  -0.0116  0.00387   7.3882E-07  4.1209E-04  4.1209E-04   89.897
    14    1   0.0000   0.0000  -0.0077  0.00387   7.5364E-07  4.4671E-04  4.4671E-04   89.903
    15    1   0.0000   0.0000  -0.0039  0.00387   7.6253E-07  4.8454E-04  4.8455E-04   89.910
    16    1   0.0000   0.0000   0.0000  0.00387   7.6549E-07  5.1801E-04  5.1801E-04   89.915
    17    1   0.0000   0.0000   0.0039  0.00387   7.6253E-07  4.8454E-04  4.8455E-04   89.910
    18    1   0.0000   0.0000   0.0077  0.00387   7.5364E-07  4.4671E-04  4.4671E-04   89.903
    19    1   0.0000   0.0000   0.0116  0.00387   7.3882E-07  4.1209E-04  4.1209E-04   89.897
    20    1   0.0000   0.0000   0.0155  0.00387   7.1804E-07  3.7885E-04  3.7885E-04   89.891
    21    1   0.0000   0.0000   0.0194  0.00387   6.9128E-07  3.4637E-04  3.4637E-04   89.886
    22    1   0.0000   0.0000   0.0232  0.00387   6.5851E-07  3.1435E-04  3.1436E-04   89.880
    23    1   0.0000   0.0000   0.0271  0.00387   6.1967E-07  2.8260E-04  2.8260E-04   89.874
    24    1   0.0000   0.0000   0.0310  0.00387   5.7468E-07  2.5098E-04  2.5098E-04   89.869
    25    1   0.0000   0.0000   0.0349  0.00387   5.2345E-07  2.1937E-04  2.1937E-04   89.863
    26    1   0.0000   0.0000   0.0387  0.00387   4.6582E-07  1.8769E-04  1.8769E-04   89.858
    27    1   0.0000   0.0000   0.0426  0.00387   4.0158E-07  1.5582E-04  1.5582E-04   89.852
    28    1   0.0000   0.0000   0.0465  0.00387   3.3037E-07  1.2363E-04  1.2363E-04   89.847
    29    1   0.0000   0.0000   0.0504  0.00387   2.5160E-07  9.0927E-05  9.0927E-05   89.841
    30    1   0.0000   0.0000   0.0542  0.00387   1.6403E-07  5.7316E-05  5.7316E-05   89.836
    31    1   0.0000   0.0000   0.0581  0.00387   6.2660E-08  2.1202E-05  2.1202E-05   89.831



                                        - - - POWER BUDGET - - -

                                           INPUT POWER   = 3.8274E-07 WATTS
                                           RADIATED POWER= 3.8274E-07 WATTS
                                           STRUCTURE LOSS= 0.0000E+00 WATTS
                                           NETWORK LOSS  = 0.0000E+00 WATTS
                                           EFFICIENCY    = 100.00 PERCENT



                                                - - - RADIATION PATTERNS - - -

  - - ANGLES - -           - POWER GAINS -       - - - POLARIZATION - - -    - - - E(THETA) - - -    - - - E(PHI) - - -
  THETA     PHI        VERT.   HOR.    TOTAL      AXIAL     TILT   SENSE     MAGNITUDE    PHASE      MAGNITUDE    PHASE 
 DEGREES  DEGREES       DB      DB      DB        RATIO     DEG.              VOLTS/M    DEGREES      VOLTS/M    DEGREES
   90.00     0.00       1.78 -999.99    1.78    0.00000     0.00  LINEAR    5.88036E-03   179.88    0.00000E+00     0.00




                                 - - - - - - FREQUENCY - - - - - -

                                    FREQUENCY= 1.3000E+02 MHZ
                                    WAVELENGTH= 2.3062E+00 METERS




                    APPROXIMATE INTEGRATION EMPLOYED FOR SEGMENTS MORE THAN   1.000 WAVELENGTHS APART



                               - - - STRUCTURE IMPEDANCE LOADING - - -

                                   THIS STRUCTURE IS NOT LOADED



                                  - - - ANTENNA ENVIRONMENT - - -

                                            FREE SPACE



                                - - - MATRIX TIMING - - -

                        FILL=    0.000 SEC.,  FACTOR=    0.000 SEC.



                                          - - - ANTENNA INPUT PARAMETERS - - -

   TAG   SEG.    VOLTAGE (VOLTS)         CURRENT (AMPS)         IMPEDANCE (OHMS)        ADMITTANCE (MHOS)      POWER
   NO.   NO.    REAL        IMAG.       REAL        IMAG.       REAL        IMAG.       REAL        IMAG.     (WATTS)
     1    16 1.00000E+00 0.00000E+00 1.07961E-06 5.66572E-04 3.36321E+00-1.76500E+03 1.07961E-06 5.66572E-04 5.39803E-07



                             - - - CURRENTS AND LOCATION - - -

                                 DISTANCES IN WAVELENGTHS


  SEG.  TAG    COORD. OF SEG. CENTER     SEG.            - - - CURRENT (AMPS) - - -
  NO.   NO.     X        Y        Z      LENGTH     REAL        IMAG.       MAG.        PHASE
     1    1   0.0000   0.0000  -0.0629  0.00420   8.8162E-08  2.3319E-05  2.3319E-05   89.783
     2    1   0.0000   0.0000  -0.0587  0.00420   2.3086E-07  6.3032E-05  6.3033E-05   89.790
     3    1   0.0000   0.0000  -0.0546  0.00420   3.5421E-07  9.9982E-05  9.9983E-05   89.797
     4    1   0.0000   0.0000  -0.0504  0.00420   4.6523E-07  1.3592E-04  1.3592E-04   89.804
     5    1   0.0000   0.0000  -0.0462  0.00420   5.6564E-07  1.7127E-04  1.7127E-04   89.811
     6    1   0.0000   0.0000  -0.0420  0.00420   6.5628E-07  2.0625E-04  2.0625E-04   89.818
     7    1   0.0000   0.0000  -0.0378  0.00420   7.3762E-07  2.4100E-04  2.4100E-04   89.825
     8    1   0.0000   0.0000  -0.0336  0.00420   8.0996E-07  2.7563E-04  2.7563E-04   89.832
     9    1   0.0000   0.0000  -0.0294  0.00420   8.7350E-07  3.1025E-04  3.1025E-04   89.839
    10    1   0.0000   0.0000  -0.0252  0.00420   9.2838E-07  3.4497E-04  3.4497E-04   89.846
    11    1   0.0000   0.0000  -0.0210  0.00420   9.7470E-07  3.7994E-04  3.7994E-04   89.853
    12    1   0.0000   0.0000  -0.0168  0.00420   1.0125E-06  4.1536E-04  4.1536E-04   89.860
    13    1   0.0000   0.0000  -0.0126  0.00420   1.0419E-06  4.5157E-04  4.5157E-04   89.868
    14    1   0.0000   0.0000  -0.0084  0.00420   1.0629E-06  4.8922E-04  4.8922E-04   89.876
    15    1   0.0000   0.0000  -0.0042  0.00420   1.0754E-06  5.3029E-04  5.3029E-04   89.884
    16    1   0.0000   0.0000   0.0000  0.00420   1.0796E-06  5.6657E-04  5.6657E-04   89.891
    17    1   0.0000   0.0000   0.0042  0.00420   1.0754E-06  5.3029E-04  5.3029E-04   89.884
    18    1   0.0000   0.0000   0.0084  0.00420   1.0629E-06  4.8922E-04  4.8922E-04   89.876
    19    1   0.0000   0.0000   0.0126  0.00420   1.0419E-06  4.5157E-04  4.5157E-04   89.868
    20    1   0.0000   0.0000   0.0168  0.00420   1.0125E-06  4.1536E-04  4.1536E-04   89.860
    21    1   0.0000   0.0000   0.0210  0.00420   9.7470E-07  3.7994E-04  3.7994E-04   89.853
    22    1   0.0000   0.0000   0.0252  0.00420   9.2838E-07  3.4497E-04  3.4497E-04   89.846
    23    1   0.0000   0.0000   0.0294  0.00420   8.7350E-07  3.1025E-04  3.1025E-04   89.839
    24    1   0.0000   0.0000   0.0336  0.00420   8.0996E-07  2.7563E-04  2.7563E-04   89.832
    25    1   0.0000   0.0000   0.0378  0.00420   7.3762E-07  2.4100E-04  2.4100E-04   89.825
    26    1   0.0000   0.0000   0.0420  0.00420   6.5628E-07  2.0625E-04  2.0625E-04   89.818
    27    1   0.0000   0.0000   0.0462  0.00420   5.6564E-07  1.7127E-04  1.7127E-04   89.811
    28    1   0.0000   0.0000   0.0504  0.00420   4.6523E-07  1.3592E-04  1.3592E-04   89.804
    29    1   0.0000   0.0000   0.0546  0.00420   3.5421E-07  9.9982E-05  9.9983E-05   89.797
    30    1   0.0000   0.0000   0.0587  0.00420   2.3086E-07  6.3032E-05  6.3033E-05   89.790
    31    1   0.0000   0.0000   0.0629  0.00420   8.8162E-08  2.3319E-05  2.3319E-05   89.783



                                        - - - POWER BUDGET - - -

                                           INPUT POWER   = 5.3980E-07 WATTS
                                           RADIATED POWER= 5.3980E-07 WATTS
                                           STRUCTURE LOSS= 0.0000E+00 WATTS
                                           NETWORK LOSS  = 0.0000E+00 WATTS
                                           EFFICIENCY    = 100.00 PERCENT



                                                - - - RADIATION PATTERNS - - -

  - - ANGLES - -           - POWER GAINS -       - - - POLARIZATION - - -    - - - E(THETA) - - -    - - - E(PHI) - - -
  THETA     PHI        VERT.   HOR.    TOTAL      AXIAL     TILT   SENSE     MAGNITUDE    PHASE      MAGNITUDE    PHASE 
 DEGREES  DEGREES       DB      DB      DB        RATIO     DEG.              VOLTS/M    DEGREES      VOLTS/M    DEGREES
   90.00     0.00       1.78 -999.99    1.78    0.00000     0.00  LINEAR    6.98639E-03   179.85    0.00000E+00     0.00




                                 - - - - - - FREQUENCY - - - - - -

                                    FREQUENCY= 1.4000E+02 MHZ
                                    WAVELENGTH= 2.1414E+00 METERS




                    APPROXIMATE INTEGRATION EMPLOYED FOR SEGMENTS MORE THAN   1.000 WAVELENGTHS APART



                               - - - STRUCTURE IMPEDANCE LOADING - - -

                                   THIS STRUCTURE IS NOT LOADED



                                  - - - ANTENNA ENVIRONMENT - - -

                                            FREE SPACE



                                - - - MATRIX TIMING - - -

                        FILL=    0.016 SEC.,  FACTOR=    0.000 SEC.



                                          - - - ANTENNA INPUT PARAMETERS - - -

   TAG   SEG.    VOLTAGE (VOLTS)         CURRENT (AMPS)         IMPEDANCE (OHMS)        ADMITTANCE (MHOS)      POWER
   NO.   NO.    REAL        IMAG.       REAL        IMAG.       REAL        IMAG.       REAL        IMAG.     (WATTS)
     1    16 1.00000E+00 0.00000E+00 1.49017E-06 6.16579E-04 3.91974E+00-1.62184E+03 1.49017E-06 6.16579E-04 7.45086E-07



                             - - - CURRENTS AND LOCATION - - -

                                 DISTANCES IN WAVELENGTHS


  SEG.  TAG    COORD. OF SEG. CENTER     SEG.            - - - CURRENT (AMPS) - - -
  NO.   NO.     X        Y        Z      LENGTH     REAL        IMAG.       MAG.        PHASE
     1    1   0.0000   0.0000  -0.0678  0.00452   1.2138E-07  2.5530E-05  2.5530E-05   89.728
     2    1   0.0000   0.0000  -0.0633  0.00452   3.1794E-07  6.9002E-05  6.9002E-05   89.736
     3    1   0.0000   0.0000  -0.0587  0.00452   4.8797E-07  1.0944E-04  1.0944E-04   89.745
     4    1   0.0000   0.0000  -0.0542  0.00452   6.4110E-07  1.4874E-04  1.4874E-04   89.753
     5    1   0.0000   0.0000  -0.0497  0.00452   7.7968E-07  1.8739E-04  1.8739E-04   89.762
     6    1   0.0000   0.0000  -0.0452  0.00452   9.0483E-07  2.2560E-04  2.2560E-04   89.770
     7    1   0.0000   0.0000  -0.0407  0.00452   1.0172E-06  2.6353E-04  2.6353E-04   89.779
     8    1   0.0000   0.0000  -0.0362  0.00452   1.1172E-06  3.0129E-04  3.0130E-04   89.788
     9    1   0.0000   0.0000  -0.0316  0.00452   1.2050E-06  3.3901E-04  3.3901E-04   89.796
    10    1   0.0000   0.0000  -0.0271  0.00452   1.2809E-06  3.7678E-04  3.7678E-04   89.805
    11    1   0.0000   0.0000  -0.0226  0.00452   1.3450E-06  4.1477E-04  4.1477E-04   89.814
    12    1   0.0000   0.0000  -0.0181  0.00452   1.3973E-06  4.5320E-04  4.5320E-04   89.823
    13    1   0.0000   0.0000  -0.0136  0.00452   1.4380E-06  4.9242E-04  4.9242E-04   89.833
    14    1   0.0000   0.0000  -0.0090  0.00452   1.4670E-06  5.3313E-04  5.3313E-04   89.842
    15    1   0.0000   0.0000  -0.0045  0.00452   1.4844E-06  5.7747E-04  5.7747E-04   89.853
    16    1   0.0000   0.0000   0.0000  0.00452   1.4902E-06  6.1658E-04  6.1658E-04   89.862
    17    1   0.0000   0.0000   0.0045  0.00452   1.4844E-06  5.7747E-04  5.7747E-04   89.853
    18    1   0.0000   0.0000   0.0090  0.00452   1.4670E-06  5.3313E-04  5.3313E-04   89.842
    19    1   0.0000   0.0000   0.0136  0.00452   1.4380E-06  4.9242E-04  4.9242E-04   89.833
    20    1   0.0000   0.0000   0.0181  0.00452   1.3973E-06  4.5320E-04  4.5320E-04   89.823
[...]
     7    1   0.0000   0.0000  -0.5723  0.06359  -2.3924E-04  5.6874E-04  6.1701E-04  112.814
     8    1   0.0000   0.0000  -0.5087  0.06359  -1.9833E-04  3.8869E-05  2.0211E-04  168.912
     9    1   0.0000   0.0000  -0.4451  0.06359  -1.2601E-04 -5.0130E-04  5.1689E-04 -104.110
    10    1   0.0000   0.0000  -0.3815  0.06359  -2.7549E-05 -9.6724E-04  9.6763E-04  -91.631
    11    1   0.0000   0.0000  -0.3180  0.06359   8.7865E-05 -1.2848E-03  1.2878E-03  -86.088
    12    1   0.0000   0.0000  -0.2544  0.06359   2.0825E-04 -1.4011E-03  1.4165E-03  -81.546
    13    1   0.0000   0.0000  -0.1908  0.06359   3.2036E-04 -1.2913E-03  1.3304E-03  -76.066
    14    1   0.0000   0.0000  -0.1272  0.06359   4.1138E-04 -9.5945E-04  1.0439E-03  -66.792
    15    1   0.0000   0.0000  -0.0636  0.06359   4.7069E-04 -4.2251E-04  6.3250E-04  -41.912
    16    1   0.0000   0.0000   0.0000  0.06359   4.9127E-04  1.1824E-04  5.0530E-04   13.533
    17    1   0.0000   0.0000   0.0636  0.06359   4.7069E-04 -4.2251E-04  6.3250E-04  -41.912
    18    1   0.0000   0.0000   0.1272  0.06359   4.1138E-04 -9.5945E-04  1.0439E-03  -66.792
    19    1   0.0000   0.0000   0.1908  0.06359   3.2036E-04 -1.2913E-03  1.3304E-03  -76.066
    20    1   0.0000   0.0000   0.2544  0.06359   2.0825E-04 -1.4011E-03  1.4165E-03  -81.546
    21    1   0.0000   0.0000   0.3180  0.06359   8.7865E-05 -1.2848E-03  1.2878E-03  -86.088
    22    1   0.0000   0.0000   0.3815  0.06359  -2.7549E-05 -9.6724E-04  9.6763E-04  -91.631
    23    1   0.0000   0.0000   0.4451  0.06359  -1.2601E-04 -5.0130E-04  5.1689E-04 -104.110
    24    1   0.0000   0.0000   0.5087  0.06359  -1.9833E-04  3.8869E-05  2.0211E-04  168.912
    25    1   0.0000   0.0000   0.5723  0.06359  -2.3924E-04  5.6874E-04  6.1701E-04  112.814
    26    1   0.0000   0.0000   0.6359  0.06359  -2.4786E-04  1.0059E-03  1.0360E-03  103.843
    27    1   0.0000   0.0000   0.6995  0.06359  -2.2761E-04  1.2823E-03  1.3023E-03  100.065
    28    1   0.0000   0.0000   0.7631  0.06359  -1.8545E-04  1.3542E-03  1.3668E-03   97.798
    29    1   0.0000   0.0000   0.8267  0.06359  -1.3068E-04  1.2079E-03  1.2150E-03   96.175
    30    1   0.0000   0.0000   0.8903  0.06359  -7.3405E-05  8.6002E-04  8.6315E-04   94.879
    31    1   0.0000   0.0000   0.9539  0.06359  -2.2293E-05  3.3799E-04  3.3872E-04   93.774



                                        - - - POWER BUDGET - - -

                                           INPUT POWER   = 2.4564E-04 WATTS
                                           RADIATED POWER= 2.4564E-04 WATTS
                                           STRUCTURE LOSS= 0.0000E+00 WATTS
                                           NETWORK LOSS  = 0.0000E+00 WATTS
                                           EFFICIENCY    = 100.00 PERCENT



                                                - - - RADIATION PATTERNS - - -

  - - ANGLES - -           - POWER GAINS -       - - - POLARIZATION - - -    - - - E(THETA) - - -    - - - E(PHI) - - -
  THETA     PHI        VERT.   HOR.    TOTAL      AXIAL     TILT   SENSE     MAGNITUDE    PHASE      MAGNITUDE    PHASE 
 DEGREES  DEGREES       DB      DB      DB        RATIO     DEG.              VOLTS/M    DEGREES      VOLTS/M    DEGREES
   90.00     0.00     -24.46 -999.99  -24.46    0.00000     0.00  LINEAR    7.25923E-03    61.97    0.00000E+00     0.00




                                 - - - - - - FREQUENCY - - - - - -

                                    FREQUENCY= 1.9800E+03 MHZ
                                    WAVELENGTH= 1.5141E-01 METERS




                    APPROXIMATE INTEGRATION EMPLOYED FOR SEGMENTS MORE THAN   1.000 WAVELENGTHS APART



                               - - - STRUCTURE IMPEDANCE LOADING - - -

                                   THIS STRUCTURE IS NOT LOADED



                                  - - - ANTENNA ENVIRONMENT - - -

                                            FREE SPACE



                                - - - MATRIX TIMING - - -

                        FILL=    0.000 SEC.,  FACTOR=    0.016 SEC.



                                          - - - ANTENNA INPUT PARAMETERS - - -

   TAG   SEG.    VOLTAGE (VOLTS)         CURRENT (AMPS)         IMPEDANCE (OHMS)        ADMITTANCE (MHOS)      POWER
   NO.   NO.    REAL        IMAG.       REAL        IMAG.       REAL        IMAG.       REAL        IMAG.     (WATTS)
     1    16 1.00000E+00 0.00000E+00 4.87627E-04 1.58326E-04 1.85517E+03-6.02350E+02 4.87627E-04 1.58326E-04 2.43814E-04



                             - - - CURRENTS AND LOCATION - - -

                                 DISTANCES IN WAVELENGTHS


  SEG.  TAG    COORD. OF SEG. CENTER     SEG.            - - - CURRENT (AMPS) - - -
  NO.   NO.     X        Y        Z      LENGTH     REAL        IMAG.       MAG.        PHASE
     1    1   0.0000   0.0000  -0.9587  0.06391  -2.0759E-05  3.4003E-04  3.4066E-04   93.494
     2    1   0.0000   0.0000  -0.8948  0.06391  -6.9606E-05  8.6479E-04  8.6758E-04   94.602
     3    1   0.0000   0.0000  -0.8309  0.06391  -1.2544E-04  1.2132E-03  1.2197E-03   95.903
     4    1   0.0000   0.0000  -0.7670  0.06391  -1.7960E-04  1.3575E-03  1.3693E-03   97.537
     5    1   0.0000   0.0000  -0.7030  0.06391  -2.2195E-04  1.2811E-03  1.3001E-03   99.829
     6    1   0.0000   0.0000  -0.6391  0.06391  -2.4305E-04  9.9849E-04  1.0276E-03  103.681
     7    1   0.0000   0.0000  -0.5752  0.06391  -2.3572E-04  5.5489E-04  6.0288E-04  113.016
     8    1   0.0000   0.0000  -0.5113  0.06391  -1.9633E-04  1.9965E-05  1.9735E-04  174.194
     9    1   0.0000   0.0000  -0.4474  0.06391  -1.2554E-04 -5.2232E-04  5.3720E-04 -103.514
    10    1   0.0000   0.0000  -0.3835  0.06391  -2.8434E-05 -9.8634E-04  9.8675E-04  -91.651
    11    1   0.0000   0.0000  -0.3196  0.06391   8.5900E-05 -1.2976E-03  1.3004E-03  -86.213
    12    1   0.0000   0.0000  -0.2557  0.06391   2.0552E-04 -1.4036E-03  1.4186E-03  -81.670
    13    1   0.0000   0.0000  -0.1917  0.06391   3.1714E-04 -1.2811E-03  1.3198E-03  -76.096
    14    1   0.0000   0.0000  -0.1278  0.06391   4.0789E-04 -9.3625E-04  1.0212E-03  -66.459
    15    1   0.0000   0.0000  -0.0639  0.06391   4.6708E-04 -3.8829E-04  6.0739E-04  -39.737
    16    1   0.0000   0.0000   0.0000  0.06391   4.8763E-04  1.5833E-04  5.1269E-04   17.988
    17    1   0.0000   0.0000   0.0639  0.06391   4.6708E-04 -3.8829E-04  6.0739E-04  -39.737
    18    1   0.0000   0.0000   0.1278  0.06391   4.0789E-04 -9.3625E-04  1.0212E-03  -66.459
    19    1   0.0000   0.0000   0.1917  0.06391   3.1714E-04 -1.2811E-03  1.3198E-03  -76.096
    20    1   0.0000   0.0000   0.2557  0.06391   2.0552E-04 -1.4036E-03  1.4186E-03  -81.670
    21    1   0.0000   0.0000   0.3196  0.06391   8.5900E-05 -1.2976E-03  1.3004E-03  -86.213
    22    1   0.0000   0.0000   0.3835  0.06391  -2.8434E-05 -9.8634E-04  9.8675E-04  -91.651
    23    1   0.0000   0.0000   0.4474  0.06391  -1.2554E-04 -5.2232E-04  5.3720E-04 -103.514
    24    1   0.0000   0.0000   0.5113  0.06391  -1.9633E-04  1.9965E-05  1.9735E-04  174.193
    25    1   0.0000   0.0000   0.5752  0.06391  -2.3572E-04  5.5489E-04  6.0288E-04  113.016
    26    1   0.0000   0.0000   0.6391  0.06391  -2.4305E-04  9.9849E-04  1.0276E-03  103.681
    27    1   0.0000   0.0000   0.7030  0.06391  -2.2195E-04  1.2811E-03  1.3001E-03   99.829
    28    1   0.0000   0.0000   0.7670  0.06391  -1.7960E-04  1.3575E-03  1.3693E-03   97.537
    29    1   0.0000   0.0000   0.8309  0.06391  -1.2544E-04  1.2132E-03  1.2197E-03   95.903
    30    1   0.0000   0.0000   0.8948  0.06391  -6.9605E-05  8.6479E-04  8.6758E-04   94.602
    31    1   0.0000   0.0000   0.9587  0.06391  -2.0759E-05  3.4003E-04  3.4066E-04   93.494



                                        - - - POWER BUDGET - - -

                                           INPUT POWER   = 2.4381E-04 WATTS
                                           RADIATED POWER= 2.4381E-04 WATTS
                                           STRUCTURE LOSS= 0.0000E+00 WATTS
                                           NETWORK LOSS  = 0.0000E+00 WATTS
                                           EFFICIENCY    = 100.00 PERCENT



                                                - - - RADIATION PATTERNS - - -

  - - ANGLES - -           - POWER GAINS -       - - - POLARIZATION - - -    - - - E(THETA) - - -    - - - E(PHI) - - -
  THETA     PHI        VERT.   HOR.    TOTAL      AXIAL     TILT   SENSE     MAGNITUDE    PHASE      MAGNITUDE    PHASE 
 DEGREES  DEGREES       DB      DB      DB        RATIO     DEG.              VOLTS/M    DEGREES      VOLTS/M    DEGREES
   90.00     0.00     -24.09 -999.99  -24.09    0.00000     0.00  LINEAR    7.55265E-03    64.23    0.00000E+00     0.00




                                 - - - - - - FREQUENCY - - - - - -

                                    FREQUENCY= 1.9900E+03 MHZ
                                    WAVELENGTH= 1.5065E-01 METERS




                    APPROXIMATE INTEGRATION EMPLOYED FOR SEGMENTS MORE THAN   1.000 WAVELENGTHS APART



                               - - - STRUCTURE IMPEDANCE LOADING - - -

                                   THIS STRUCTURE IS NOT LOADED



                                  - - - ANTENNA ENVIRONMENT - - -

                                            FREE SPACE



                                - - - MATRIX TIMING - - -

                        FILL=    0.000 SEC.,  FACTOR=    0.000 SEC.



                                          - - - ANTENNA INPUT PARAMETERS - - -

   TAG   SEG.    VOLTAGE (VOLTS)         CURRENT (AMPS)         IMPEDANCE (OHMS)        ADMITTANCE (MHOS)      POWER
   NO.   NO.    REAL        IMAG.       REAL        IMAG.       REAL        IMAG.       REAL        IMAG.     (WATTS)
     1    16 1.00000E+00 0.00000E+00 4.84365E-04 1.98582E-04 1.76747E+03-7.24635E+02 4.84365E-04 1.98582E-04 2.42182E-04



                             - - - CURRENTS AND LOCATION - - -

                                 DISTANCES IN WAVELENGTHS


  SEG.  TAG    COORD. OF SEG. CENTER     SEG.            - - - CURRENT (AMPS) - - -
  NO.   NO.     X        Y        Z      LENGTH     REAL        IMAG.       MAG.        PHASE
     1    1   0.0000   0.0000  -0.9635  0.06424  -1.9218E-05  3.4239E-04  3.4293E-04   93.213
     2    1   0.0000   0.0000  -0.8993  0.06424  -6.5805E-05  8.7037E-04  8.7286E-04   94.324
     3    1   0.0000   0.0000  -0.8351  0.06424  -1.2024E-04  1.2197E-03  1.2256E-03   95.630
     4    1   0.0000   0.0000  -0.7708  0.06424  -1.7385E-04  1.3619E-03  1.3730E-03   97.274
     5    1   0.0000   0.0000  -0.7066  0.06424  -2.1645E-04  1.2809E-03  1.2991E-03   99.592
     6    1   0.0000   0.0000  -0.6424  0.06424  -2.3846E-04  9.9186E-04  1.0201E-03  103.518
     7    1   0.0000   0.0000  -0.5781  0.06424  -2.3248E-04  5.4142E-04  5.8922E-04  113.238
     8    1   0.0000   0.0000  -0.5139  0.06424  -1.9463E-04  1.0094E-06  1.9463E-04  179.703
     9    1   0.0000   0.0000  -0.4497  0.06424  -1.2533E-04 -5.4376E-04  5.5801E-04 -102.980
    10    1   0.0000   0.0000  -0.3854  0.06424  -2.9515E-05 -1.0061E-03  1.0065E-03  -91.680
    11    1   0.0000   0.0000  -0.3212  0.06424   8.3845E-05 -1.3110E-03  1.3137E-03  -86.341
    12    1   0.0000   0.0000  -0.2569  0.06424   2.0282E-04 -1.4067E-03  1.4213E-03  -81.796
    13    1   0.0000   0.0000  -0.1927  0.06424   3.1408E-04 -1.2713E-03  1.3095E-03  -76.122
    14    1   0.0000   0.0000  -0.1285  0.06424   4.0468E-04 -9.1314E-04  9.9879E-04  -66.098
    15    1   0.0000   0.0000  -0.0642  0.06424   4.6382E-04 -3.5397E-04  5.8346E-04  -37.350
    16    1   0.0000   0.0000   0.0000  0.06424   4.8436E-04  1.9858E-04  5.2349E-04   22.293
    17    1   0.0000   0.0000   0.0642  0.06424   4.6382E-04 -3.5397E-04  5.8346E-04  -37.350
    18    1   0.0000   0.0000   0.1285  0.06424   4.0468E-04 -9.1314E-04  9.9879E-04  -66.098
    19    1   0.0000   0.0000   0.1927  0.06424   3.1408E-04 -1.2713E-03  1.3095E-03  -76.122
    20    1   0.0000   0.0000   0.2569  0.06424   2.0282E-04 -1.4067E-03  1.4213E-03  -81.796
    21    1   0.0000   0.0000   0.3212  0.06424   8.3844E-05 -1.3110E-03  1.3137E-03  -86.341
    22    1   0.0000   0.0000   0.3854  0.06424  -2.9515E-05 -1.0061E-03  1.0065E-03  -91.680
    23    1   0.0000   0.0000   0.4497  0.06424  -1.2533E-04 -5.4376E-04  5.5801E-04 -102.980
    24    1   0.0000   0.0000   0.5139  0.06424  -1.9463E-04  1.0094E-06  1.9463E-04  179.703
    25    1   0.0000   0.0000   0.5781  0.06424  -2.3248E-04  5.4142E-04  5.8922E-04  113.238
    26    1   0.0000   0.0000   0.6424  0.06424  -2.3846E-04  9.9186E-04  1.0201E-03  103.518
    27    1   0.0000   0.0000   0.7066  0.06424  -2.1645E-04  1.2809E-03  1.2991E-03   99.592
    28    1   0.0000   0.0000   0.7708  0.06424  -1.7385E-04  1.3619E-03  1.3730E-03   97.274
    29    1   0.0000   0.0000   0.8351  0.06424  -1.2024E-04  1.2197E-03  1.2256E-03   95.630
    30    1   0.0000   0.0000   0.8993  0.06424  -6.5804E-05  8.7037E-04  8.7286E-04   94.324
    31    1   0.0000   0.0000   0.9635  0.06424  -1.9218E-05  3.4239E-04  3.4293E-04   93.213



                                        - - - POWER BUDGET - - -

                                           INPUT POWER   = 2.4218E-04 WATTS
                                           RADIATED POWER= 2.4218E-04 WATTS
                                           STRUCTURE LOSS= 0.0000E+00 WATTS
                                           NETWORK LOSS  = 0.0000E+00 WATTS
                                           EFFICIENCY    = 100.00 PERCENT



                                                - - - RADIATION PATTERNS - - -

  - - ANGLES - -           - POWER GAINS -       - - - POLARIZATION - - -    - - - E(THETA) - - -    - - - E(PHI) - - -
  THETA     PHI        VERT.   HOR.    TOTAL      AXIAL     TILT   SENSE     MAGNITUDE    PHASE      MAGNITUDE    PHASE 
 DEGREES  DEGREES       DB      DB      DB        RATIO     DEG.              VOLTS/M    DEGREES      VOLTS/M    DEGREES
   90.00     0.00     -23.76 -999.99  -23.76    0.00000     0.00  LINEAR    7.81619E-03    66.81    0.00000E+00     0.00




                                 - - - - - - FREQUENCY - - - - - -

                                    FREQUENCY= 2.0000E+03 MHZ
                                    WAVELENGTH= 1.4990E-01 METERS




                    APPROXIMATE INTEGRATION EMPLOYED FOR SEGMENTS MORE THAN   1.000 WAVELENGTHS APART



                               - - - STRUCTURE IMPEDANCE LOADING - - -

                                   THIS STRUCTURE IS NOT LOADED



                                  - - - ANTENNA ENVIRONMENT - - -

                                            FREE SPACE



                                - - - MATRIX TIMING - - -

                        FILL=    0.000 SEC.,  FACTOR=    0.000 SEC.



                                          - - - ANTENNA INPUT PARAMETERS - - -

   TAG   SEG.    VOLTAGE (VOLTS)         CURRENT (AMPS)         IMPEDANCE (OHMS)        ADMITTANCE (MHOS)      POWER
   NO.   NO.    REAL        IMAG.       REAL        IMAG.       REAL        IMAG.       REAL        IMAG.     (WATTS)
     1    16 1.00000E+00 0.00000E+00 4.81483E-04 2.39083E-04 1.66611E+03-8.27316E+02 4.81483E-04 2.39083E-04 2.40742E-04



                             - - - CURRENTS AND LOCATION - - -

                                 DISTANCES IN WAVELENGTHS


  SEG.  TAG    COORD. OF SEG. CENTER     SEG.            - - - CURRENT (AMPS) - - -
  NO.   NO.     X        Y        Z      LENGTH     REAL        IMAG.       MAG.        PHASE
     1    1   0.0000   0.0000  -0.9684  0.06456  -1.7661E-05  3.4510E-04  3.4555E-04   92.930
     2    1   0.0000   0.0000  -0.9038  0.06456  -6.1983E-05  8.7681E-04  8.7899E-04   94.044
     3    1   0.0000   0.0000  -0.8393  0.06456  -1.1505E-04  1.2273E-03  1.2327E-03   95.355
     4    1   0.0000   0.0000  -0.7747  0.06456  -1.6816E-04  1.3677E-03  1.3780E-03   97.010
     5    1   0.0000   0.0000  -0.7102  0.06456  -2.1109E-04  1.2818E-03  1.2991E-03   99.352
     6    1   0.0000   0.0000  -0.6456  0.06456  -2.3408E-04  9.8600E-04  1.0134E-03  103.355
     7    1   0.0000   0.0000  -0.5810  0.06456  -2.2951E-04  5.2829E-04  5.7599E-04  113.482
     8    1   0.0000   0.0000  -0.5165  0.06456  -1.9322E-04 -1.8049E-05  1.9406E-04 -174.663
     9    1   0.0000   0.0000  -0.4519  0.06456  -1.2540E-04 -5.6565E-04  5.7939E-04 -102.500
    10    1   0.0000   0.0000  -0.3874  0.06456  -3.0802E-05 -1.0265E-03  1.0269E-03  -91.719
    11    1   0.0000   0.0000  -0.3228  0.06456   8.1688E-05 -1.3251E-03  1.3277E-03  -86.472
    12    1   0.0000   0.0000  -0.2582  0.06456   2.0015E-04 -1.4104E-03  1.4245E-03  -81.923
    13    1   0.0000   0.0000  -0.1937  0.06456   3.1119E-04 -1.2618E-03  1.2996E-03  -76.146
    14    1   0.0000   0.0000  -0.1291  0.06456   4.0174E-04 -8.9009E-04  9.7655E-04  -65.708
    15    1   0.0000   0.0000  -0.0646  0.06456   4.6092E-04 -3.1950E-04  5.6082E-04  -34.729
    16    1   0.0000   0.0000   0.0000  0.06456   4.8148E-04  2.3908E-04  5.3757E-04   26.407
    17    1   0.0000   0.0000   0.0646  0.06456   4.6092E-04 -3.1950E-04  5.6082E-04  -34.729
    18    1   0.0000   0.0000   0.1291  0.06456   4.0174E-04 -8.9009E-04  9.7655E-04  -65.708
    19    1   0.0000   0.0000   0.1937  0.06456   3.1119E-04 -1.2618E-03  1.2996E-03  -76.146
    20    1   0.0000   0.0000   0.2582  0.06456   2.0015E-04 -1.4104E-03  1.4245E-03  -81.923
    21    1   0.0000   0.0000   0.3228  0.06456   8.1688E-05 -1.3251E-03  1.3277E-03  -86.472
    22    1   0.0000   0.0000   0.3874  0.06456  -3.0803E-05 -1.0265E-03  1.0269E-03  -91.719
    23    1   0.0000   0.0000   0.4519  0.06456  -1.2540E-04 -5.6565E-04  5.7939E-04 -102.500
    24    1   0.0000   0.0000   0.5165  0.06456  -1.9322E-04 -1.8049E-05  1.9406E-04 -174.663
    25    1   0.0000   0.0000   0.5810  0.06456  -2.2951E-04  5.2829E-04  5.7599E-04  113.482
    26    1   0.0000   0.0000   0.6456  0.06456  -2.3408E-04  9.8600E-04  1.0134E-03  103.355
    27    1   0.0000   0.0000   0.7102  0.06456  -2.1109E-04  1.2818E-03  1.2991E-03   99.352
    28    1   0.0000   0.0000   0.7747  0.06456  -1.6816E-04  1.3677E-03  1.3780E-03   97.010
    29    1   0.0000   0.0000   0.8393  0.06456  -1.1505E-04  1.2273E-03  1.2327E-03   95.355
    30    1   0.0000   0.0000   0.9038  0.06456  -6.1983E-05  8.7681E-04  8.7899E-04   94.044
    31    1   0.0000   0.0000   0.9684  0.06456  -1.7661E-05  3.4510E-04  3.4555E-04   92.930



                                        - - - POWER BUDGET - - -

                                           INPUT POWER   = 2.4074E-04 WATTS
                                           RADIATED POWER= 2.4074E-04 WATTS
                                           STRUCTURE LOSS= 0.0000E+00 WATTS
                                           NETWORK LOSS  = 0.0000E+00 WATTS
                                           EFFICIENCY    = 100.00 PERCENT



                                                - - - RADIATION PATTERNS - - -

  - - ANGLES - -           - POWER GAINS -       - - - POLARIZATION - - -    - - - E(THETA) - - -    - - - E(PHI) - - -
  THETA     PHI        VERT.   HOR.    TOTAL      AXIAL     TILT   SENSE     MAGNITUDE    PHASE      MAGNITUDE    PHASE 
 DEGREES  DEGREES       DB      DB      DB        RATIO     DEG.              VOLTS/M    DEGREES      VOLTS/M    DEGREES
   90.00     0.00     -23.47 -999.99  -23.47    0.00000     0.00  LINEAR    8.05838E-03    69.71    0.00000E+00     0.00
 ***** DATA CARD NO.  4   EN   0     1     0  1000  9.00000E+01  0.00000E+00  0.00000E+00  0.00000E+00  0.00000E+00  0.00000E+00

 RUN TIME =     0.547
