1



                                 *********************************************

                                    NUMERICAL ELECTROMAGNETICS CODE (NEC-2D)

                                 *********************************************




                                     - - - - COMMENTS - - - -


                          ECE 6370 - Homework 8.1                                                    
                          Caitlyn Caggia                                                             
                          Calculation 1                                                              




                                 - - - STRUCTURE SPECIFICATION - - -

                                     COORDINATES MUST BE INPUT IN
                                     METERS OR BE SCALED TO METERS
                                     BEFORE STRUCTURE INPUT IS ENDED


  WIRE                                                                               NO. OF    FIRST  LAST     TAG
  NO.        X1         Y1         Z1          X2         Y2         Z2      RADIUS   SEG.     SEG.   SEG.     NO.
     1   -0.07500    0.00000   -0.05000    -0.07500    0.00000    0.05000    0.00025     11        1    11       1
     2    0.00000    0.00000   -0.05000     0.00000    0.00000    0.05000    0.00025     11       12    22       2
     3    0.07500    0.00000   -0.05000     0.07500    0.00000    0.05000    0.00025     11       23    33       3

   TOTAL SEGMENTS USED=   33     NO. SEG. IN A SYMMETRIC CELL=   33     SYMMETRY FLAG=  0


         - MULTIPLE WIRE JUNCTIONS -
 JUNCTION    SEGMENTS  (- FOR END 1, + FOR END 2)
  NONE




                                 - - - - SEGMENTATION DATA - - - -

                                        COORDINATES IN METERS

                         I+ AND I- INDICATE THE SEGMENTS BEFORE AND AFTER I


  SEG.   COORDINATES OF SEG. CENTER     SEG.     ORIENTATION ANGLES    WIRE    CONNECTION DATA   TAG
  NO.       X         Y         Z       LENGTH     ALPHA     BETA      RADIUS    I-   I    I+    NO.
     1  -0.07500   0.00000  -0.04545   0.00909   90.00000   0.00000   0.00025     0    1    2      1
     2  -0.07500   0.00000  -0.03636   0.00909   90.00000   0.00000   0.00025     1    2    3      1
     3  -0.07500   0.00000  -0.02727   0.00909   90.00000   0.00000   0.00025     2    3    4      1
     4  -0.07500   0.00000  -0.01818   0.00909   90.00000   0.00000   0.00025     3    4    5      1
     5  -0.07500   0.00000  -0.00909   0.00909   90.00000   0.00000   0.00025     4    5    6      1
     6  -0.07500   0.00000   0.00000   0.00909   90.00000   0.00000   0.00025     5    6    7      1
     7  -0.07500   0.00000   0.00909   0.00909   90.00000   0.00000   0.00025     6    7    8      1
     8  -0.07500   0.00000   0.01818   0.00909   90.00000   0.00000   0.00025     7    8    9      1
     9  -0.07500   0.00000   0.02727   0.00909   90.00000   0.00000   0.00025     8    9   10      1
    10  -0.07500   0.00000   0.03636   0.00909   90.00000   0.00000   0.00025     9   10   11      1
    11  -0.07500   0.00000   0.04545   0.00909   90.00000   0.00000   0.00025    10   11    0      1
    12   0.00000   0.00000  -0.04545   0.00909   90.00000   0.00000   0.00025     0   12   13      2
    13   0.00000   0.00000  -0.03636   0.00909   90.00000   0.00000   0.00025    12   13   14      2
    14   0.00000   0.00000  -0.02727   0.00909   90.00000   0.00000   0.00025    13   14   15      2
    15   0.00000   0.00000  -0.01818   0.00909   90.00000   0.00000   0.00025    14   15   16      2
    16   0.00000   0.00000  -0.00909   0.00909   90.00000   0.00000   0.00025    15   16   17      2
    17   0.00000   0.00000   0.00000   0.00909   90.00000   0.00000   0.00025    16   17   18      2
    18   0.00000   0.00000   0.00909   0.00909   90.00000   0.00000   0.00025    17   18   19      2
    19   0.00000   0.00000   0.01818   0.00909   90.00000   0.00000   0.00025    18   19   20      2
    20   0.00000   0.00000   0.02727   0.00909   90.00000   0.00000   0.00025    19   20   21      2
    21   0.00000   0.00000   0.03636   0.00909   90.00000   0.00000   0.00025    20   21   22      2
    22   0.00000   0.00000   0.04545   0.00909   90.00000   0.00000   0.00025    21   22    0      2
    23   0.07500   0.00000  -0.04545   0.00909   90.00000   0.00000   0.00025     0   23   24      3
    24   0.07500   0.00000  -0.03636   0.00909   90.00000   0.00000   0.00025    23   24   25      3
    25   0.07500   0.00000  -0.02727   0.00909   90.00000   0.00000   0.00025    24   25   26      3
    26   0.07500   0.00000  -0.01818   0.00909   90.00000   0.00000   0.00025    25   26   27      3
    27   0.07500   0.00000  -0.00909   0.00909   90.00000   0.00000   0.00025    26   27   28      3
    28   0.07500   0.00000   0.00000   0.00909   90.00000   0.00000   0.00025    27   28   29      3
    29   0.07500   0.00000   0.00909   0.00909   90.00000   0.00000   0.00025    28   29   30      3
    30   0.07500   0.00000   0.01818   0.00909   90.00000   0.00000   0.00025    29   30   31      3
    31   0.07500   0.00000   0.02727   0.00909   90.00000   0.00000   0.00025    30   31   32      3
    32   0.07500   0.00000   0.03636   0.00909   90.00000   0.00000   0.00025    31   32   33      3
    33   0.07500   0.00000   0.04545   0.00909   90.00000   0.00000   0.00025    32   33    0      3






 ***** DATA CARD NO.  1   EX   0     1     6     0  8.35839E+00  4.92000E+00  0.00000E+00  0.00000E+00  0.00000E+00  0.00000E+00
 ***** DATA CARD NO.  2   EX   0     2     6     0 -2.29101E+00 -9.50497E+00  0.00000E+00  0.00000E+00  0.00000E+00  0.00000E+00
 ***** DATA CARD NO.  3   EX   0     3     6     0 -4.92000E+00  8.35839E+00  0.00000E+00  0.00000E+00  0.00000E+00  0.00000E+00
 ***** DATA CARD NO.  4   FR   0     1     0     0  1.50000E+03  0.00000E+00  0.00000E+00  0.00000E+00  0.00000E+00  0.00000E+00
 ***** DATA CARD NO.  5   RP   0   181    91  1000  0.00000E+00  0.00000E+00  2.00000E+00  2.00000E+00  0.00000E+00  0.00000E+00




                                 - - - - - - FREQUENCY - - - - - -

                                    FREQUENCY= 1.5000E+03 MHZ
                                    WAVELENGTH= 1.9987E-01 METERS




                    APPROXIMATE INTEGRATION EMPLOYED FOR SEGMENTS MORE THAN   1.000 WAVELENGTHS APART



                               - - - STRUCTURE IMPEDANCE LOADING - - -

                                   THIS STRUCTURE IS NOT LOADED



                                  - - - ANTENNA ENVIRONMENT - - -

                                            FREE SPACE



                                - - - MATRIX TIMING - - -

                        FILL=    0.000 SEC.,  FACTOR=    0.000 SEC.



                                          - - - ANTENNA INPUT PARAMETERS - - -

   TAG   SEG.    VOLTAGE (VOLTS)         CURRENT (AMPS)         IMPEDANCE (OHMS)        ADMITTANCE (MHOS)      POWER
   NO.   NO.    REAL        IMAG.       REAL        IMAG.       REAL        IMAG.       REAL        IMAG.     (WATTS)
     1     6 8.35839E+00 4.92000E+00 1.09248E-01-2.43970E-02 6.32946E+01 5.91698E+01 8.43110E-03-7.88167E-03 3.96553E-01
     2    17-2.29101E+00-9.50497E+00-5.84363E-02-1.57546E-02 7.74296E+01 1.41780E+02 2.96701E-03-5.43283E-03 1.41813E-01
     3    28-4.92000E+00 8.35839E+00 9.26499E-03 4.07485E-02 1.68935E+02 1.59151E+02 3.13608E-03-2.95446E-03 1.47504E-01



                             - - - CURRENTS AND LOCATION - - -

                                 DISTANCES IN WAVELENGTHS


  SEG.  TAG    COORD. OF SEG. CENTER     SEG.            - - - CURRENT (AMPS) - - -
  NO.   NO.     X        Y        Z      LENGTH     REAL        IMAG.       MAG.        PHASE
     1    1  -0.3753   0.0000  -0.2274  0.04548   2.1043E-02 -6.9203E-03  2.2152E-02  -18.204
     2    1  -0.3753   0.0000  -0.1819  0.04548   5.3287E-02 -1.6780E-02  5.5866E-02  -17.479
     3    1  -0.3753   0.0000  -0.1365  0.04548   7.8698E-02 -2.3507E-02  8.2133E-02  -16.631
     4    1  -0.3753   0.0000  -0.0910  0.04548   9.7130E-02 -2.7111E-02  1.0084E-01  -15.596
     5    1  -0.3753   0.0000  -0.0455  0.04548   1.0737E-01 -2.7134E-02  1.1075E-01  -14.182
     6    1  -0.3753   0.0000   0.0000  0.04548   1.0925E-01 -2.4397E-02  1.1194E-01  -12.589
     7    1  -0.3753   0.0000   0.0455  0.04548   1.0737E-01 -2.7134E-02  1.1075E-01  -14.182
     8    1  -0.3753   0.0000   0.0910  0.04548   9.7130E-02 -2.7111E-02  1.0084E-01  -15.596
     9    1  -0.3753   0.0000   0.1365  0.04548   7.8698E-02 -2.3507E-02  8.2133E-02  -16.631
    10    1  -0.3753   0.0000   0.1819  0.04548   5.3287E-02 -1.6780E-02  5.5866E-02  -17.479
    11    1  -0.3753   0.0000   0.2274  0.04548   2.1043E-02 -6.9203E-03  2.2152E-02  -18.204
    12    2   0.0000   0.0000  -0.2274  0.04548  -1.3324E-02 -2.0809E-03  1.3486E-02 -171.123
    13    2   0.0000   0.0000  -0.1819  0.04548  -3.3064E-02 -5.6106E-03  3.3537E-02 -170.369
    14    2   0.0000   0.0000  -0.1365  0.04548  -4.7661E-02 -8.8505E-03  4.8476E-02 -169.480
    15    2   0.0000   0.0000  -0.0910  0.04548  -5.7058E-02 -1.1741E-02  5.8253E-02 -168.372
    16    2   0.0000   0.0000  -0.0455  0.04548  -6.0412E-02 -1.4173E-02  6.2052E-02 -166.797
    17    2   0.0000   0.0000   0.0000  0.04548  -5.8436E-02 -1.5755E-02  6.0523E-02 -164.912
    18    2   0.0000   0.0000   0.0455  0.04548  -6.0412E-02 -1.4173E-02  6.2052E-02 -166.797
    19    2   0.0000   0.0000   0.0910  0.04548  -5.7058E-02 -1.1741E-02  5.8253E-02 -168.372
    20    2   0.0000   0.0000   0.1365  0.04548  -4.7661E-02 -8.8505E-03  4.8476E-02 -169.480
    21    2   0.0000   0.0000   0.1819  0.04548  -3.3064E-02 -5.6106E-03  3.3537E-02 -170.369
    22    2   0.0000   0.0000   0.2274  0.04548  -1.3324E-02 -2.0809E-03  1.3486E-02 -171.123
    23    3   0.3753   0.0000  -0.2274  0.04548   4.2345E-03  8.7645E-03  9.7338E-03   64.213
    24    3   0.3753   0.0000  -0.1819  0.04548   9.8871E-03  2.1904E-02  2.4032E-02   65.706
    25    3   0.3753   0.0000  -0.1365  0.04548   1.3186E-02  3.1837E-02  3.4460E-02   67.502
    26    3   0.3753   0.0000  -0.0910  0.04548   1.4178E-02  3.8512E-02  4.1039E-02   69.789
    27    3   0.3753   0.0000  -0.0455  0.04548   1.2561E-02  4.1384E-02  4.3248E-02   73.116
    28    3   0.3753   0.0000   0.0000  0.04548   9.2650E-03  4.0748E-02  4.1789E-02   77.190
    29    3   0.3753   0.0000   0.0455  0.04548   1.2561E-02  4.1384E-02  4.3248E-02   73.116
    30    3   0.3753   0.0000   0.0910  0.04548   1.4178E-02  3.8512E-02  4.1039E-02   69.789
    31    3   0.3753   0.0000   0.1365  0.04548   1.3186E-02  3.1837E-02  3.4460E-02   67.502
    32    3   0.3753   0.0000   0.1819  0.04548   9.8871E-03  2.1904E-02  2.4032E-02   65.706
    33    3   0.3753   0.0000   0.2274  0.04548   4.2345E-03  8.7645E-03  9.7338E-03   64.213



                                        - - - POWER BUDGET - - -

                                           INPUT POWER   = 6.8587E-01 WATTS
                                           RADIATED POWER= 6.8587E-01 WATTS
                                           STRUCTURE LOSS= 0.0000E+00 WATTS
                                           NETWORK LOSS  = 0.0000E+00 WATTS
                                           EFFICIENCY    = 100.00 PERCENT



                                                - - - RADIATION PATTERNS - - -

  - - ANGLES - -           - POWER GAINS -       - - - POLARIZATION - - -    - - - E(THETA) - - -    - - - E(PHI) - - -
  THETA     PHI        VERT.   HOR.    TOTAL      AXIAL     TILT   SENSE     MAGNITUDE    PHASE      MAGNITUDE    PHASE 
 DEGREES  DEGREES       DB      DB      DB        RATIO     DEG.              VOLTS/M    DEGREES      VOLTS/M    DEGREES
    0.00     0.00    -999.99 -999.99 -999.99    0.00000     0.00            0.00000E+00     0.00    0.00000E+00     0.00
    2.00     0.00     -36.56 -999.99  -36.56    0.00000     0.00  LINEAR    9.52797E-02    81.65    0.00000E+00     0.00
    4.00     0.00     -31.38 -999.99  -31.38    0.00000     0.00  LINEAR    1.72929E-01    71.49    0.00000E+00     0.00
    6.00     0.00     -28.56 -999.99  -28.56    0.00000     0.00  LINEAR    2.39442E-01    59.07    0.00000E+00     0.00
    8.00     0.00     -26.42 -999.99  -26.42    0.00000     0.00  LINEAR    3.06183E-01    44.65    0.00000E+00     0.00
   10.00     0.00     -24.36 -999.99  -24.36    0.00000     0.00  LINEAR    3.88216E-01    29.38    0.00000E+00     0.00
   12.00     0.00     -22.16 -999.99  -22.16    0.00000     0.00  LINEAR    5.00083E-01    14.93    0.00000E+00     0.00
   14.00     0.00     -19.86 -999.99  -19.86    0.00000     0.00  LINEAR    6.51552E-01     2.52    0.00000E+00     0.00
   16.00     0.00     -17.58 -999.99  -17.58    0.00000     0.00  LINEAR    8.46931E-01    -7.56    0.00000E+00     0.00
   18.00     0.00     -15.42 -999.99  -15.42    0.00000     0.00  LINEAR    1.08691E+00   -15.59    0.00000E+00     0.00
   20.00     0.00     -13.40 -999.99  -13.40    0.00000     0.00  LINEAR    1.37035E+00   -21.99    0.00000E+00     0.00
   22.00     0.00     -11.56 -999.99  -11.56    0.00000     0.00  LINEAR    1.69520E+00   -27.18    0.00000E+00     0.00
   24.00     0.00      -9.87 -999.99   -9.87    0.00000     0.00  LINEAR    2.05893E+00   -31.45    0.00000E+00     0.00
   26.00     0.00      -8.33 -999.99   -8.33    0.00000     0.00  LINEAR    2.45857E+00   -35.04    0.00000E+00     0.00
   28.00     0.00      -6.92 -999.99   -6.92    0.00000     0.00  LINEAR    2.89086E+00   -38.10    0.00000E+00     0.00
   30.00     0.00      -5.63 -999.99   -5.63    0.00000     0.00  LINEAR    3.35226E+00   -40.76    0.00000E+00     0.00
   32.00     0.00      -4.46 -999.99   -4.46    0.00000     0.00  LINEAR    3.83896E+00   -43.10    0.00000E+00     0.00
   34.00     0.00      -3.38 -999.99   -3.38    0.00000     0.00  LINEAR    4.34699E+00   -45.18    0.00000E+00     0.00
   36.00     0.00      -2.39 -999.99   -2.39    0.00000     0.00  LINEAR    4.87222E+00   -47.05    0.00000E+00     0.00
   38.00     0.00      -1.48 -999.99   -1.48    0.00000     0.00  LINEAR    5.41048E+00   -48.75    0.00000E+00     0.00
   40.00     0.00      -0.64 -999.99   -0.64    0.00000     0.00  LINEAR    5.95755E+00   -50.30    0.00000E+00     0.00
   42.00     0.00       0.13 -999.99    0.13    0.00000     0.00  LINEAR    6.50927E+00   -51.72    0.00000E+00     0.00
   44.00     0.00       0.84 -999.99    0.84    0.00000     0.00  LINEAR    7.06160E+00   -53.04    0.00000E+00     0.00
   46.00     0.00       1.49 -999.99    1.49    0.00000     0.00  LINEAR    7.61063E+00   -54.27    0.00000E+00     0.00
   48.00     0.00       2.09 -999.99    2.09    0.00000     0.00  LINEAR    8.15265E+00   -55.41    0.00000E+00     0.00
   50.00     0.00       2.63 -999.99    2.63    0.00000     0.00  LINEAR    8.68420E+00   -56.48    0.00000E+00     0.00
   52.00     0.00       3.14 -999.99    3.14    0.00000     0.00  LINEAR    9.20211E+00   -57.47    0.00000E+00     0.00
   54.00     0.00       3.60 -999.99    3.60    0.00000     0.00  LINEAR    9.70348E+00   -58.41    0.00000E+00     0.00
   56.00     0.00       4.02 -999.99    4.02    0.00000     0.00  LINEAR    1.01857E+01   -59.29    0.00000E+00     0.00
   58.00     0.00       4.40 -999.99    4.40    0.00000     0.00  LINEAR    1.06466E+01   -60.11    0.00000E+00     0.00
   60.00     0.00       4.75 -999.99    4.75    0.00000     0.00  LINEAR    1.10842E+01   -60.87    0.00000E+00     0.00
   62.00     0.00       5.07 -999.99    5.07    0.00000     0.00  LINEAR    1.14969E+01   -61.59    0.00000E+00     0.00
   64.00     0.00       5.36 -999.99    5.36    0.00000     0.00  LINEAR    1.18834E+01   -62.26    0.00000E+00     0.00
   66.00     0.00       5.62 -999.99    5.62    0.00000     0.00  LINEAR    1.22426E+01   -62.87    0.00000E+00     0.00
   68.00     0.00       5.85 -999.99    5.85    0.00000     0.00  LINEAR    1.25738E+01   -63.44    0.00000E+00     0.00
   70.00     0.00       6.05 -999.99    6.05    0.00000     0.00  LINEAR    1.28764E+01   -63.96    0.00000E+00     0.00
   72.00     0.00       6.24 -999.99    6.24    0.00000     0.00  LINEAR    1.31501E+01   -64.44    0.00000E+00     0.00
   74.00     0.00       6.40 -999.99    6.40    0.00000     0.00  LINEAR    1.33947E+01   -64.86    0.00000E+00     0.00
   76.00     0.00       6.54 -999.99    6.54    0.00000     0.00  LINEAR    1.36101E+01   -65.24    0.00000E+00     0.00
   78.00     0.00       6.65 -999.99    6.65    0.00000     0.00  LINEAR    1.37964E+01   -65.56    0.00000E+00     0.00
   80.00     0.00       6.75 -999.99    6.75    0.00000     0.00  LINEAR    1.39536E+01   -65.84    0.00000E+00     0.00
   82.00     0.00       6.83 -999.99    6.83    0.00000     0.00  LINEAR    1.40819E+01   -66.07    0.00000E+00     0.00
   84.00     0.00       6.89 -999.99    6.89    0.00000     0.00  LINEAR    1.41816E+01   -66.24    0.00000E+00     0.00
   86.00     0.00       6.94 -999.99    6.94    0.00000     0.00  LINEAR    1.42526E+01   -66.37    0.00000E+00     0.00
   88.00     0.00       6.96 -999.99    6.96    0.00000     0.00  LINEAR    1.42952E+01   -66.45    0.00000E+00     0.00
   90.00     0.00       6.97 -999.99    6.97    0.00000     0.00  LINEAR    1.43094E+01   -66.47    0.00000E+00     0.00
   92.00     0.00       6.96 -999.99    6.96    0.00000     0.00  LINEAR    1.42952E+01   -66.45    0.00000E+00     0.00
   94.00     0.00       6.94 -999.99    6.94    0.00000     0.00  LINEAR    1.42526E+01   -66.37    0.00000E+00     0.00
   96.00     0.00       6.89 -999.99    6.89    0.00000     0.00  LINEAR    1.41816E+01   -66.24    0.00000E+00     0.00
   98.00     0.00       6.83 -999.99    6.83    0.00000     0.00  LINEAR    1.40819E+01   -66.07    0.00000E+00     0.00
  100.00     0.00       6.75 -999.99    6.75    0.00000     0.00  LINEAR    1.39536E+01   -65.84    0.00000E+00     0.00
  102.00     0.00       6.65 -999.99    6.65    0.00000     0.00  LINEAR    1.37964E+01   -65.56    0.00000E+00     0.00
  104.00     0.00       6.54 -999.99    6.54    0.00000     0.00  LINEAR    1.36101E+01   -65.24    0.00000E+00     0.00
  106.00     0.00       6.40 -999.99    6.40    0.00000     0.00  LINEAR    1.33947E+01   -64.86    0.00000E+00     0.00
  108.00     0.00       6.24 -999.99    6.24    0.00000     0.00  LINEAR    1.31501E+01   -64.44    0.00000E+00     0.00
  110.00     0.00       6.05 -999.99    6.05    0.00000     0.00  LINEAR    1.28764E+01   -63.96    0.00000E+00     0.00
  112.00     0.00       5.85 -999.99    5.85    0.00000     0.00  LINEAR    1.25738E+01   -63.44    0.00000E+00     0.00
  114.00     0.00       5.62 -999.99    5.62    0.00000     0.00  LINEAR    1.22426E+01   -62.87    0.00000E+00     0.00
  116.00     0.00       5.36 -999.99    5.36    0.00000     0.00  LINEAR    1.18834E+01   -62.26    0.00000E+00     0.00
  118.00     0.00       5.07 -999.99    5.07    0.00000     0.00  LINEAR    1.14969E+01   -61.59    0.00000E+00     0.00
  120.00     0.00       4.75 -999.99    4.75    0.00000     0.00  LINEAR    1.10842E+01   -60.87    0.00000E+00     0.00
  122.00     0.00       4.40 -999.99    4.40    0.00000     0.00  LINEAR    1.06466E+01   -60.11    0.00000E+00     0.00
  124.00     0.00       4.02 -999.99    4.02    0.00000     0.00  LINEAR    1.01857E+01   -59.29    0.00000E+00     0.00
  126.00     0.00       3.60 -999.99    3.60    0.00000     0.00  LINEAR    9.70348E+00   -58.41    0.00000E+00     0.00
  128.00     0.00       3.14 -999.99    3.14    0.00000     0.00  LINEAR    9.20211E+00   -57.47    0.00000E+00     0.00
  130.00     0.00       2.63 -999.99    2.63    0.00000     0.00  LINEAR    8.68420E+00   -56.48    0.00000E+00     0.00
  132.00     0.00       2.09 -999.99    2.09    0.00000     0.00  LINEAR    8.15265E+00   -55.41    0.00000E+00     0.00
  134.00     0.00       1.49 -999.99    1.49    0.00000     0.00  LINEAR    7.61063E+00   -54.27    0.00000E+00     0.00
  136.00     0.00       0.84 -999.99    0.84    0.00000     0.00  LINEAR    7.06160E+00   -53.04    0.00000E+00     0.00
  138.00     0.00       0.13 -999.99    0.13    0.00000     0.00  LINEAR    6.50927E+00   -51.72    0.00000E+00     0.00
  140.00     0.00      -0.64 -999.99   -0.64    0.00000     0.00  LINEAR    5.95755E+00   -50.30    0.00000E+00     0.00
  142.00     0.00      -1.48 -999.99   -1.48    0.00000     0.00  LINEAR    5.41048E+00   -48.75    0.00000E+00     0.00
  144.00     0.00      -2.39 -999.99   -2.39    0.00000     0.00  LINEAR    4.87222E+00   -47.05    0.00000E+00     0.00
  146.00     0.00      -3.38 -999.99   -3.38    0.00000     0.00  LINEAR    4.34699E+00   -45.18    0.00000E+00     0.00
  148.00     0.00      -4.46 -999.99   -4.46    0.00000     0.00  LINEAR    3.83896E+00   -43.10    0.00000E+00     0.00
  150.00     0.00      -5.63 -999.99   -5.63    0.00000     0.00  LINEAR    3.35226E+00   -40.76    0.00000E+00     0.00
  152.00     0.00      -6.92 -999.99   -6.92    0.00000     0.00  LINEAR    2.89086E+00   -38.10    0.00000E+00     0.00
  154.00     0.00      -8.33 -999.99   -8.33    0.00000     0.00  LINEAR    2.45857E+00   -35.04    0.00000E+00     0.00
  156.00     0.00      -9.87 -999.99   -9.87    0.00000     0.00  LINEAR    2.05893E+00   -31.45    0.00000E+00     0.00
  158.00     0.00     -11.56 -999.99  -11.56    0.00000     0.00  LINEAR    1.69520E+00   -27.18    0.00000E+00     0.00
  160.00     0.00     -13.40 -999.99  -13.40    0.00000     0.00  LINEAR    1.37035E+00   -21.99    0.00000E+00     0.00
  162.00     0.00     -15.42 -999.99  -15.42    0.00000     0.00  LINEAR    1.08691E+00   -15.59    0.00000E+00     0.00
  164.00     0.00     -17.58 -999.99  -17.58    0.00000     0.00  LINEAR    8.46931E-01    -7.56    0.00000E+00     0.00
  166.00     0.00     -19.86 -999.99  -19.86    0.00000     0.00  LINEAR    6.51552E-01     2.52    0.00000E+00     0.00
  168.00     0.00     -22.16 -999.99  -22.16    0.00000     0.00  LINEAR    5.00083E-01    14.93    0.00000E+00     0.00
  170.00     0.00     -24.36 -999.99  -24.36    0.00000     0.00  LINEAR    3.88216E-01    29.38    0.00000E+00     0.00
  172.00     0.00     -26.42 -999.99  -26.42    0.00000     0.00  LINEAR    3.06183E-01    44.65    0.00000E+00     0.00
  174.00     0.00     -28.56 -999.99  -28.56    0.00000     0.00  LINEAR    2.39442E-01    59.07    0.00000E+00     0.00
  176.00     0.00     -31.38 -999.99  -31.38    0.00000     0.00  LINEAR    1.72929E-01    71.49    0.00000E+00     0.00
  178.00     0.00     -36.56 -999.99  -36.56    0.00000     0.00  LINEAR    9.52797E-02    81.65    0.00000E+00     0.00
  180.00     0.00    -999.99 -999.99 -999.99    0.00000     0.00  LINEAR    3.07626E-11   -90.16    0.00000E+00     0.00
  182.00     0.00     -34.89 -999.99  -34.89    0.00000     0.00  LINEAR    1.15467E-01   -83.49    0.00000E+00     0.00
  184.00     0.00     -28.15 -999.99  -28.15    0.00000     0.00  LINEAR    2.51046E-01   -77.94    0.00000E+00     0.00
  186.00     0.00     -23.99 -999.99  -23.99    0.00000     0.00  LINEAR    4.05015E-01   -73.20    0.00000E+00     0.00
  188.00     0.00     -20.95 -999.99  -20.95    0.00000     0.00  LINEAR    5.74639E-01   -69.06    0.00000E+00     0.00
  190.00     0.00     -18.56 -999.99  -18.56    0.00000     0.00  LINEAR    7.56575E-01   -65.33    0.00000E+00     0.00
  192.00     0.00     -16.61 -999.99  -16.61    0.00000     0.00  LINEAR    9.47142E-01   -61.89    0.00000E+00     0.00
  194.00     0.00     -14.98 -999.99  -14.98    0.00000     0.00  LINEAR    1.14253E+00   -58.66    0.00000E+00     0.00
  196.00     0.00     -13.61 -999.99  -13.61    0.00000     0.00  LINEAR    1.33894E+00   -55.54    0.00000E+00     0.00
  198.00     0.00     -12.43 -999.99  -12.43    0.00000     0.00  LINEAR    1.53274E+00   -52.49    0.00000E+00     0.00
  200.00     0.00     -11.43 -999.99  -11.43    0.00000     0.00  LINEAR    1.72060E+00   -49.45    0.00000E+00     0.00
  202.00     0.00     -10.57 -999.99  -10.57    0.00000     0.00  LINEAR    1.89956E+00   -46.38    0.00000E+00     0.00
  204.00     0.00      -9.83 -999.99   -9.83    0.00000     0.00  LINEAR    2.06719E+00   -43.23    0.00000E+00     0.00
  206.00     0.00      -9.21 -999.99   -9.21    0.00000     0.00  LINEAR    2.22167E+00   -39.96    0.00000E+00     0.00
  208.00     0.00      -8.68 -999.99   -8.68    0.00000     0.00  LINEAR    2.36188E+00   -36.54    0.00000E+00     0.00
  210.00     0.00      -8.23 -999.99   -8.23    0.00000     0.00  LINEAR    2.48750E+00   -32.92    0.00000E+00     0.00
  212.00     0.00      -7.84 -999.99   -7.84    0.00000     0.00  LINEAR    2.59907E+00   -29.09    0.00000E+00     0.00
  214.00     0.00      -7.52 -999.99   -7.52    0.00000     0.00  LINEAR    2.69805E+00   -25.01    0.00000E+00     0.00
  216.00     0.00      -7.24 -999.99   -7.24    0.00000     0.00  LINEAR    2.78681E+00   -20.65    0.00000E+00     0.00
  218.00     0.00      -6.99 -999.99   -6.99    0.00000     0.00  LINEAR    2.86862E+00   -16.02    0.00000E+00     0.00
  220.00     0.00      -6.75 -999.99   -6.75    0.00000     0.00  LINEAR    2.94751E+00   -11.10    0.00000E+00     0.00
  222.00     0.00      -6.52 -999.99   -6.52    0.00000     0.00  LINEAR    3.02810E+00    -5.92    0.00000E+00     0.00
  224.00     0.00      -6.27 -999.99   -6.27    0.00000     0.00  LINEAR    3.11527E+00    -0.53    0.00000E+00     0.00
  226.00     0.00      -6.00 -999.99   -6.00    0.00000     0.00  LINEAR    3.21379E+00     5.00    0.00000E+00     0.00
  228.00     0.00      -5.70 -999.99   -5.70    0.00000     0.00  LINEAR    3.32789E+00    10.60    0.00000E+00     0.00
  230.00     0.00      -5.36 -999.99   -5.36    0.00000     0.00  LINEAR    3.46086E+00    16.18    0.00000E+00     0.00
  232.00     0.00      -4.98 -999.99   -4.98    0.00000     0.00  LINEAR    3.61469E+00    21.62    0.00000E+00     0.00
  234.00     0.00      -4.57 -999.99   -4.57    0.00000     0.00  LINEAR    3.78999E+00    26.84    0.00000E+00     0.00
  236.00     0.00      -4.13 -999.99   -4.13    0.00000     0.00  LINEAR    3.98592E+00    31.78    0.00000E+00     0.00
  238.00     0.00      -3.68 -999.99   -3.68    0.00000     0.00  LINEAR    4.20040E+00    36.38    0.00000E+00     0.00
  240.00     0.00      -3.21 -999.99   -3.21    0.00000     0.00  LINEAR    4.43034E+00    40.60    0.00000E+00     0.00
  242.00     0.00      -2.75 -999.99   -2.75    0.00000     0.00  LINEAR    4.67196E+00    44.45    0.00000E+00     0.00
  244.00     0.00      -2.30 -999.99   -2.30    0.00000     0.00  LINEAR    4.92101E+00    47.91    0.00000E+00     0.00
  246.00     0.00      -1.87 -999.99   -1.87    0.00000     0.00  LINEAR    5.17303E+00    51.01    0.00000E+00     0.00
  248.00     0.00      -1.46 -999.99   -1.46    0.00000     0.00  LINEAR    5.42354E+00    53.76    0.00000E+00     0.00
  250.00     0.00      -1.07 -999.99   -1.07    0.00000     0.00  LINEAR    5.66818E+00    56.18    0.00000E+00     0.00
  252.00     0.00      -0.72 -999.99   -0.72    0.00000     0.00  LINEAR    5.90278E+00    58.30    0.00000E+00     0.00
  254.00     0.00      -0.40 -999.99   -0.40    0.00000     0.00  LINEAR    6.12349E+00    60.14    0.00000E+00     0.00
  256.00     0.00      -0.12 -999.99   -0.12    0.00000     0.00  LINEAR    6.32676E+00    61.71    0.00000E+00     0.00
  258.00     0.00       0.13 -999.99    0.13    0.00000     0.00  LINEAR    6.50944E+00    63.04    0.00000E+00     0.00
  260.00     0.00       0.34 -999.99    0.34    0.00000     0.00  LINEAR    6.66876E+00    64.13    0.00000E+00     0.00
  262.00     0.00       0.51 -999.99    0.51    0.00000     0.00  LINEAR    6.80235E+00    65.02    0.00000E+00     0.00
  264.00     0.00       0.65 -999.99    0.65    0.00000     0.00  LINEAR    6.90828E+00    65.69    0.00000E+00     0.00
  266.00     0.00       0.74 -999.99    0.74    0.00000     0.00  LINEAR    6.98503E+00    66.17    0.00000E+00     0.00
  268.00     0.00       0.80 -999.99    0.80    0.00000     0.00  LINEAR    7.03151E+00    66.45    0.00000E+00     0.00
  270.00     0.00       0.82 -999.99    0.82    0.00000     0.00  LINEAR    7.04708E+00    66.55    0.00000E+00     0.00
  272.00     0.00       0.80 -999.99    0.80    0.00000     0.00  LINEAR    7.03151E+00    66.45    0.00000E+00     0.00
  274.00     0.00       0.74 -999.99    0.74    0.00000     0.00  LINEAR    6.98503E+00    66.17    0.00000E+00     0.00
  276.00     0.00       0.65 -999.99    0.65    0.00000     0.00  LINEAR    6.90828E+00    65.69    0.00000E+00     0.00
  278.00     0.00       0.51 -999.99    0.51    0.00000     0.00  LINEAR    6.80235E+00    65.02    0.00000E+00     0.00
  280.00     0.00       0.34 -999.99    0.34    0.00000     0.00  LINEAR    6.66876E+00    64.13    0.00000E+00     0.00
  282.00     0.00       0.13 -999.99    0.13    0.00000     0.00  LINEAR    6.50944E+00    63.04    0.00000E+00     0.00
  284.00     0.00      -0.12 -999.99   -0.12    0.00000     0.00  LINEAR    6.32676E+00    61.71    0.00000E+00     0.00
  286.00     0.00      -0.40 -999.99   -0.40    0.00000     0.00  LINEAR    6.12349E+00    60.14    0.00000E+00     0.00
  288.00     0.00      -0.72 -999.99   -0.72    0.00000     0.00  LINEAR    5.90278E+00    58.30    0.00000E+00     0.00
  290.00     0.00      -1.07 -999.99   -1.07    0.00000     0.00  LINEAR    5.66818E+00    56.18    0.00000E+00     0.00
  292.00     0.00      -1.46 -999.99   -1.46    0.00000     0.00  LINEAR    5.42354E+00    53.76    0.00000E+00     0.00
  294.00     0.00      -1.87 -999.99   -1.87    0.00000     0.00  LINEAR    5.17303E+00    51.01    0.00000E+00     0.00
  296.00     0.00      -2.30 -999.99   -2.30    0.00000     0.00  LINEAR    4.92101E+00    47.91    0.00000E+00     0.00
  298.00     0.00      -2.75 -999.99   -2.75    0.00000     0.00  LINEAR    4.67196E+00    44.45    0.00000E+00     0.00
  300.00     0.00      -3.21 -999.99   -3.21    0.00000     0.00  LINEAR    4.43034E+00    40.60    0.00000E+00     0.00
  302.00     0.00      -3.68 -999.99   -3.68    0.00000     0.00  LINEAR    4.20040E+00    36.38    0.00000E+00     0.00
  304.00     0.00      -4.13 -999.99   -4.13    0.00000     0.00  LINEAR    3.98592E+00    31.78    0.00000E+00     0.00
  306.00     0.00      -4.57 -999.99   -4.57    0.00000     0.00  LINEAR    3.78999E+00    26.84    0.00000E+00     0.00
  308.00     0.00      -4.98 -999.99   -4.98    0.00000     0.00  LINEAR    3.61469E+00    21.62    0.00000E+00     0.00
  310.00     0.00      -5.36 -999.99   -5.36    0.00000     0.00  LINEAR    3.46086E+00    16.18    0.00000E+00     0.00
  312.00     0.00      -5.70 -999.99   -5.70    0.00000     0.00  LINEAR    3.32789E+00    10.60    0.00000E+00     0.00
  314.00     0.00      -6.00 -999.99   -6.00    0.00000     0.00  LINEAR    3.21379E+00     5.00    0.00000E+00     0.00
  316.00     0.00      -6.27 -999.99   -6.27    0.00000     0.00  LINEAR    3.11527E+00    -0.53    0.00000E+00     0.00
  318.00     0.00      -6.52 -999.99   -6.52    0.00000     0.00  LINEAR    3.02810E+00    -5.92    0.00000E+00     0.00
  320.00     0.00      -6.75 -999.99   -6.75    0.00000     0.00  LINEAR    2.94751E+00   -11.10    0.00000E+00     0.00
  322.00     0.00      -6.99 -999.99   -6.99    0.00000     0.00  LINEAR    2.86862E+00   -16.02    0.00000E+00     0.00
  324.00     0.00      -7.24 -999.99   -7.24    0.00000     0.00  LINEAR    2.78681E+00   -20.65    0.00000E+00     0.00
  326.00     0.00      -7.52 -999.99   -7.52    0.00000     0.00  LINEAR    2.69805E+00   -25.01    0.00000E+00     0.00
  328.00     0.00      -7.84 -999.99   -7.84    0.00000     0.00  LINEAR    2.59907E+00   -29.09    0.00000E+00     0.00
  330.00     0.00      -8.23 -999.99   -8.23    0.00000     0.00  LINEAR    2.48750E+00   -32.92    0.00000E+00     0.00
  332.00     0.00      -8.68 -999.99   -8.68    0.00000     0.00  LINEAR    2.36188E+00   -36.54    0.00000E+00     0.00
  334.00     0.00      -9.21 -999.99   -9.21    0.00000     0.00  LINEAR    2.22167E+00   -39.96    0.00000E+00     0.00
  336.00     0.00      -9.83 -999.99   -9.83    0.00000     0.00  LINEAR    2.06719E+00   -43.23    0.00000E+00     0.00
  338.00     0.00     -10.57 -999.99  -10.57    0.00000     0.00  LINEAR    1.89956E+00   -46.38    0.00000E+00     0.00
  340.00     0.00     -11.43 -999.99  -11.43    0.00000     0.00  LINEAR    1.72060E+00   -49.45    0.00000E+00     0.00
  342.00     0.00     -12.43 -999.99  -12.43    0.00000     0.00  LINEAR    1.53274E+00   -52.49    0.00000E+00     0.00
  344.00     0.00     -13.61 -999.99  -13.61    0.00000     0.00  LINEAR    1.33894E+00   -55.54    0.00000E+00     0.00
  346.00     0.00     -14.98 -999.99  -14.98    0.00000     0.00  LINEAR    1.14253E+00   -58.66    0.00000E+00     0.00
  348.00     0.00     -16.61 -999.99  -16.61    0.00000     0.00  LINEAR    9.47142E-01   -61.89    0.00000E+00     0.00
  350.00     0.00     -18.56 -999.99  -18.56    0.00000     0.00  LINEAR    7.56575E-01   -65.33    0.00000E+00     0.00
  352.00     0.00     -20.95 -999.99  -20.95    0.00000     0.00  LINEAR    5.74639E-01   -69.06    0.00000E+00     0.00
  354.00     0.00     -23.99 -999.99  -23.99    0.00000     0.00  LINEAR    4.05015E-01   -73.20    0.00000E+00     0.00
  356.00     0.00     -28.15 -999.99  -28.15    0.00000     0.00  LINEAR    2.51046E-01   -77.94    0.00000E+00     0.00
  358.00     0.00     -34.89 -999.99  -34.89    0.00000     0.00  LINEAR    1.15467E-01   -83.49    0.00000E+00     0.00
  360.00     0.00    -999.99 -999.99 -999.99    0.00000     0.00  LINEAR    6.15252E-11    89.84    0.00000E+00     0.00
    0.00     2.00    -999.99 -999.99 -999.99    0.00000     0.00            0.00000E+00     0.00    0.00000E+00     0.00
    2.00     2.00     -36.56 -999.99  -36.56    0.00000     0.00  LINEAR    9.52855E-02    81.65    0.00000E+00     0.00
    4.00     2.00     -31.38 -999.99  -31.38    0.00000     0.00  LINEAR    1.72949E-01    71.50    0.00000E+00     0.00
    6.00     2.00     -28.56 -999.99  -28.56    0.00000     0.00  LINEAR    2.39470E-01    59.09    0.00000E+00     0.00
    8.00     2.00     -26.42 -999.99  -26.42    0.00000     0.00  LINEAR    3.06195E-01    44.68    0.00000E+00     0.00
   10.00     2.00     -24.36 -999.99  -24.36    0.00000     0.00  LINEAR    3.88164E-01    29.42    0.00000E+00     0.00
   12.00     2.00     -22.16 -999.99  -22.16    0.00000     0.00  LINEAR    4.99910E-01    14.98    0.00000E+00     0.00
   14.00     2.00     -19.87 -999.99  -19.87    0.00000     0.00  LINEAR    6.51208E-01     2.57    0.00000E+00     0.00
   16.00     2.00     -17.59 -999.99  -17.59    0.00000     0.00  LINEAR    8.46378E-01    -7.52    0.00000E+00     0.00
   18.00     2.00     -15.42 -999.99  -15.42    0.00000     0.00  LINEAR    1.08612E+00   -15.55    0.00000E+00     0.00
   20.00     2.00     -13.41 -999.99  -13.41    0.00000     0.00  LINEAR    1.36930E+00   -21.96    0.00000E+00     0.00
   22.00     2.00     -11.56 -999.99  -11.56    0.00000     0.00  LINEAR    1.69388E+00   -27.15    0.00000E+00     0.00
   24.00     2.00      -9.87 -999.99   -9.87    0.00000     0.00  LINEAR    2.05732E+00   -31.42    0.00000E+00     0.00
   26.00     2.00      -8.33 -999.99   -8.33    0.00000     0.00  LINEAR    2.45668E+00   -35.01    0.00000E+00     0.00
   28.00     2.00      -6.93 -999.99   -6.93    0.00000     0.00  LINEAR    2.88868E+00   -38.08    0.00000E+00     0.00
   30.00     2.00      -5.64 -999.99   -5.64    0.00000     0.00  LINEAR    3.34979E+00   -40.74    0.00000E+00     0.00
   32.00     2.00      -4.46 -999.99   -4.46    0.00000     0.00  LINEAR    3.83622E+00   -43.08    0.00000E+00     0.00
   34.00     2.00      -3.38 -999.99   -3.38    0.00000     0.00  LINEAR    4.34399E+00   -45.16    0.00000E+00     0.00
   36.00     2.00      -2.39 -999.99   -2.39    0.00000     0.00  LINEAR    4.86899E+00   -47.03    0.00000E+00     0.00
   38.00     2.00      -1.48 -999.99   -1.48    0.00000     0.00  LINEAR    5.40703E+00   -48.72    0.00000E+00     0.00
   40.00     2.00      -0.64 -999.99   -0.64    0.00000     0.00  LINEAR    5.95392E+00   -50.28    0.00000E+00     0.00
   42.00     2.00       0.12 -999.99    0.12    0.00000     0.00  LINEAR    6.50550E+00   -51.70    0.00000E+00     0.00
   44.00     2.00       0.83 -999.99    0.83    0.00000     0.00  LINEAR    7.05772E+00   -53.02    0.00000E+00     0.00
   46.00     2.00       1.48 -999.99    1.48    0.00000     0.00  LINEAR    7.60667E+00   -54.25    0.00000E+00     0.00
   48.00     2.00       2.08 -999.99    2.08    0.00000     0.00  LINEAR    8.14865E+00   -55.39    0.00000E+00     0.00
   50.00     2.00       2.63 -999.99    2.63    0.00000     0.00  LINEAR    8.68021E+00   -56.46    0.00000E+00     0.00
   52.00     2.00       3.13 -999.99    3.13    0.00000     0.00  LINEAR    9.19816E+00   -57.45    0.00000E+00     0.00
   54.00     2.00       3.59 -999.99    3.59    0.00000     0.00  LINEAR    9.69961E+00   -58.39    0.00000E+00     0.00
   56.00     2.00       4.02 -999.99    4.02    0.00000     0.00  LINEAR    1.01820E+01   -59.26    0.00000E+00     0.00
   58.00     2.00       4.40 -999.99    4.40    0.00000     0.00  LINEAR    1.06430E+01   -60.09    0.00000E+00     0.00
   60.00     2.00       4.75 -999.99    4.75    0.00000     0.00  LINEAR    1.10808E+01   -60.85    0.00000E+00     0.00
   62.00     2.00       5.07 -999.99    5.07    0.00000     0.00  LINEAR    1.14937E+01   -61.57    0.00000E+00     0.00
   64.00     2.00       5.36 -999.99    5.36    0.00000     0.00  LINEAR    1.18804E+01   -62.24    0.00000E+00     0.00
   66.00     2.00       5.61 -999.99    5.61    0.00000     0.00  LINEAR    1.22398E+01   -62.85    0.00000E+00     0.00
   68.00     2.00       5.85 -999.99    5.85    0.00000     0.00  LINEAR    1.25712E+01   -63.42    0.00000E+00     0.00
   70.00     2.00       6.05 -999.99    6.05    0.00000     0.00  LINEAR    1.28741E+01   -63.94    0.00000E+00     0.00
   72.00     2.00       6.24 -999.99    6.24    0.00000     0.00  LINEAR    1.31480E+01   -64.41    0.00000E+00     0.00
   74.00     2.00       6.40 -999.99    6.40    0.00000     0.00  LINEAR    1.33928E+01   -64.84    0.00000E+00     0.00
   76.00     2.00       6.54 -999.99    6.54    0.00000     0.00  LINEAR    1.36084E+01   -65.21    0.00000E+00     0.00
   78.00     2.00       6.65 -999.99    6.65    0.00000     0.00  LINEAR    1.37948E+01   -65.54    0.00000E+00     0.00
   80.00     2.00       6.75 -999.99    6.75    0.00000     0.00  LINEAR    1.39522E+01   -65.81    0.00000E+00     0.00
   82.00     2.00       6.83 -999.99    6.83    0.00000     0.00  LINEAR    1.40807E+01   -66.04    0.00000E+00     0.00
   84.00     2.00       6.89 -999.99    6.89    0.00000     0.00  LINEAR    1.41805E+01   -66.22    0.00000E+00     0.00
   86.00     2.00       6.94 -999.99    6.94    0.00000     0.00  LINEAR    1.42516E+01   -66.34    0.00000E+00     0.00
   88.00     2.00       6.96 -999.99    6.96    0.00000     0.00  LINEAR    1.42942E+01   -66.42    0.00000E+00     0.00
   90.00     2.00       6.97 -999.99    6.97    0.00000     0.00  LINEAR    1.43084E+01   -66.45    0.00000E+00     0.00
   92.00     2.00       6.96 -999.99    6.96    0.00000     0.00  LINEAR    1.42942E+01   -66.42    0.00000E+00     0.00
   94.00     2.00       6.94 -999.99    6.94    0.00000     0.00  LINEAR    1.42516E+01   -66.34    0.00000E+00     0.00
   96.00     2.00       6.89 -999.99    6.89    0.00000     0.00  LINEAR    1.41805E+01   -66.22    0.00000E+00     0.00
   98.00     2.00       6.83 -999.99    6.83    0.00000     0.00  LINEAR    1.40807E+01   -66.04    0.00000E+00     0.00
  100.00     2.00       6.75 -999.99    6.75    0.00000     0.00  LINEAR    1.39522E+01   -65.81    0.00000E+00     0.00
  102.00     2.00       6.65 -999.99    6.65    0.00000     0.00  LINEAR    1.37948E+01   -65.54    0.00000E+00     0.00
  104.00     2.00       6.54 -999.99    6.54    0.00000     0.00  LINEAR    1.36084E+01   -65.21    0.00000E+00     0.00
  106.00     2.00       6.40 -999.99    6.40    0.00000     0.00  LINEAR    1.33928E+01   -64.84    0.00000E+00     0.00
  108.00     2.00       6.24 -999.99    6.24    0.00000     0.00  LINEAR    1.31480E+01   -64.41    0.00000E+00     0.00
  110.00     2.00       6.05 -999.99    6.05    0.00000     0.00  LINEAR    1.28741E+01   -63.94    0.00000E+00     0.00
  112.00     2.00       5.85 -999.99    5.85    0.00000     0.00  LINEAR    1.25712E+01   -63.42    0.00000E+00     0.00
  114.00     2.00       5.61 -999.99    5.61    0.00000     0.00  LINEAR    1.22398E+01   -62.85    0.00000E+00     0.00
  116.00     2.00       5.36 -999.99    5.36    0.00000     0.00  LINEAR    1.18804E+01   -62.24    0.00000E+00     0.00
  118.00     2.00       5.07 -999.99    5.07    0.00000     0.00  LINEAR    1.14937E+01   -61.57    0.00000E+00     0.00
  120.00     2.00       4.75 -999.99    4.75    0.00000     0.00  LINEAR    1.10808E+01   -60.85    0.00000E+00     0.00
  122.00     2.00       4.40 -999.99    4.40    0.00000     0.00  LINEAR    1.06430E+01   -60.09    0.00000E+00     0.00
  124.00     2.00       4.02 -999.99    4.02    0.00000     0.00  LINEAR    1.01820E+01   -59.26    0.00000E+00     0.00
  126.00     2.00       3.59 -999.99    3.59    0.00000     0.00  LINEAR    9.69961E+00   -58.39    0.00000E+00     0.00
  128.00     2.00       3.13 -999.99    3.13    0.00000     0.00  LINEAR    9.19816E+00   -57.45    0.00000E+00     0.00
  130.00     2.00       2.63 -999.99    2.63    0.00000     0.00  LINEAR    8.68021E+00   -56.46    0.00000E+00     0.00
  132.00     2.00       2.08 -999.99    2.08    0.00000     0.00  LINEAR    8.14865E+00   -55.39    0.00000E+00     0.00
  134.00     2.00       1.48 -999.99    1.48    0.00000     0.00  LINEAR    7.60667E+00   -54.25    0.00000E+00     0.00
  136.00     2.00       0.83 -999.99    0.83    0.00000     0.00  LINEAR    7.05772E+00   -53.02    0.00000E+00     0.00
  138.00     2.00       0.12 -999.99    0.12    0.00000     0.00  LINEAR    6.50550E+00   -51.70    0.00000E+00     0.00
  140.00     2.00      -0.64 -999.99   -0.64    0.00000     0.00  LINEAR    5.95392E+00   -50.28    0.00000E+00     0.00
  142.00     2.00      -1.48 -999.99   -1.48    0.00000     0.00  LINEAR    5.40703E+00   -48.72    0.00000E+00     0.00
  144.00     2.00      -2.39 -999.99   -2.39    0.00000     0.00  LINEAR    4.86899E+00   -47.03    0.00000E+00     0.00
  146.00     2.00      -3.38 -999.99   -3.38    0.00000     0.00  LINEAR    4.34399E+00   -45.16    0.00000E+00     0.00
  148.00     2.00      -4.46 -999.99   -4.46    0.00000     0.00  LINEAR    3.83622E+00   -43.08    0.00000E+00     0.00
  150.00     2.00      -5.64 -999.99   -5.64    0.00000     0.00  LINEAR    3.34979E+00   -40.74    0.00000E+00     0.00
  152.00     2.00      -6.93 -999.99   -6.93    0.00000     0.00  LINEAR    2.88868E+00   -38.08    0.00000E+00     0.00
  154.00     2.00      -8.33 -999.99   -8.33    0.00000     0.00  LINEAR    2.45667E+00   -35.01    0.00000E+00     0.00
  156.00     2.00      -9.87 -999.99   -9.87    0.00000     0.00  LINEAR    2.05732E+00   -31.42    0.00000E+00     0.00
  158.00     2.00     -11.56 -999.99  -11.56    0.00000     0.00  LINEAR    1.69388E+00   -27.15    0.00000E+00     0.00
  160.00     2.00     -13.41 -999.99  -13.41    0.00000     0.00  LINEAR    1.36930E+00   -21.96    0.00000E+00     0.00
  162.00     2.00     -15.42 -999.99  -15.42    0.00000     0.00  LINEAR    1.08612E+00   -15.55    0.00000E+00     0.00
  164.00     2.00     -17.59 -999.99  -17.59    0.00000     0.00  LINEAR    8.46378E-01    -7.52    0.00000E+00     0.00
  166.00     2.00     -19.87 -999.99  -19.87    0.00000     0.00  LINEAR    6.51208E-01     2.57    0.00000E+00     0.00
  168.00     2.00     -22.16 -999.99  -22.16    0.00000     0.00  LINEAR    4.99910E-01    14.98    0.00000E+00     0.00
  170.00     2.00     -24.36 -999.99  -24.36    0.00000     0.00  LINEAR    3.88164E-01    29.42    0.00000E+00     0.00
  172.00     2.00     -26.42 -999.99  -26.42    0.00000     0.00  LINEAR    3.06195E-01    44.68    0.00000E+00     0.00
  174.00     2.00     -28.56 -999.99  -28.56    0.00000     0.00  LINEAR    2.39470E-01    59.09    0.00000E+00     0.00
  176.00     2.00     -31.38 -999.99  -31.38    0.00000     0.00  LINEAR    1.72949E-01    71.50    0.00000E+00     0.00
  178.00     2.00     -36.56 -999.99  -36.56    0.00000     0.00  LINEAR    9.52855E-02    81.65    0.00000E+00     0.00
  180.00     2.00    -999.99 -999.99 -999.99    0.00000     0.00  LINEAR    3.07626E-11   -90.16    0.00000E+00     0.00
  182.00     2.00     -34.89 -999.99  -34.89    0.00000     0.00  LINEAR    1.15460E-01   -83.49    0.00000E+00     0.00
  184.00     2.00     -28.15 -999.99  -28.15    0.00000     0.00  LINEAR    2.51022E-01   -77.94    0.00000E+00     0.00
  186.00     2.00     -23.99 -999.99  -23.99    0.00000     0.00  LINEAR    4.04965E-01   -73.21    0.00000E+00     0.00
  188.00     2.00     -20.95 -999.99  -20.95    0.00000     0.00  LINEAR    5.74560E-01   -69.07    0.00000E+00     0.00
  190.00     2.00     -18.57 -999.99  -18.57    0.00000     0.00  LINEAR    7.56468E-01   -65.34    0.00000E+00     0.00
  192.00     2.00     -16.61 -999.99  -16.61    0.00000     0.00  LINEAR    9.47015E-01   -61.90    0.00000E+00     0.00
  194.00     2.00     -14.98 -999.99  -14.98    0.00000     0.00  LINEAR    1.14239E+00   -58.67    0.00000E+00     0.00
  196.00     2.00     -13.61 -999.99  -13.61    0.00000     0.00  LINEAR    1.33881E+00   -55.56    0.00000E+00     0.00
  198.00     2.00     -12.43 -999.99  -12.43    0.00000     0.00  LINEAR    1.53264E+00   -52.51    0.00000E+00     0.00
  200.00     2.00     -11.43 -999.99  -11.43    0.00000     0.00  LINEAR    1.72054E+00   -49.47    0.00000E+00     0.00
  202.00     2.00     -10.57 -999.99  -10.57    0.00000     0.00  LINEAR    1.89958E+00   -46.40    0.00000E+00     0.00
  204.00     2.00      -9.83 -999.99   -9.83    0.00000     0.00  LINEAR    2.06731E+00   -43.25    0.00000E+00     0.00
  206.00     2.00      -9.21 -999.99   -9.21    0.00000     0.00  LINEAR    2.22190E+00   -39.99    0.00000E+00     0.00
  208.00     2.00      -8.67 -999.99   -8.67    0.00000     0.00  LINEAR    2.36225E+00   -36.57    0.00000E+00     0.00
  210.00     2.00      -8.22 -999.99   -8.22    0.00000     0.00  LINEAR    2.48802E+00   -32.96    0.00000E+00     0.00
  212.00     2.00      -7.84 -999.99   -7.84    0.00000     0.00  LINEAR    2.59974E+00   -29.13    0.00000E+00     0.00
  214.00     2.00      -7.52 -999.99   -7.52    0.00000     0.00  LINEAR    2.69886E+00   -25.06    0.00000E+00     0.00
  216.00     2.00      -7.24 -999.99   -7.24    0.00000     0.00  LINEAR    2.78774E+00   -20.71    0.00000E+00     0.00
  218.00     2.00      -6.98 -999.99   -6.98    0.00000     0.00  LINEAR    2.86962E+00   -16.08    0.00000E+00     0.00
  220.00     2.00      -6.75 -999.99   -6.75    0.00000     0.00  LINEAR    2.94853E+00   -11.17    0.00000E+00     0.00
  222.00     2.00      -6.51 -999.99   -6.51    0.00000     0.00  LINEAR    3.02906E+00    -6.01    0.00000E+00     0.00
  224.00     2.00      -6.27 -999.99   -6.27    0.00000     0.00  LINEAR    3.11608E+00    -0.63    0.00000E+00     0.00
  226.00     2.00      -6.00 -999.99   -6.00    0.00000     0.00  LINEAR    3.21435E+00     4.90    0.00000E+00     0.00
  228.00     2.00      -5.70 -999.99   -5.70    0.00000     0.00  LINEAR    3.32810E+00    10.50    0.00000E+00     0.00
  230.00     2.00      -5.36 -999.99   -5.36    0.00000     0.00  LINEAR    3.46062E+00    16.06    0.00000E+00     0.00
  232.00     2.00      -4.98 -999.99   -4.98    0.00000     0.00  LINEAR    3.61392E+00    21.50    0.00000E+00     0.00
  234.00     2.00      -4.57 -999.99   -4.57    0.00000     0.00  LINEAR    3.78861E+00    26.72    0.00000E+00     0.00
  236.00     2.00      -4.13 -999.99   -4.13    0.00000     0.00  LINEAR    3.98388E+00    31.66    0.00000E+00     0.00
  238.00     2.00      -3.68 -999.99   -3.68    0.00000     0.00  LINEAR    4.19768E+00    36.25    0.00000E+00     0.00
  240.00     2.00      -3.22 -999.99   -3.22    0.00000     0.00  LINEAR    4.42694E+00    40.48    0.00000E+00     0.00
  242.00     2.00      -2.76 -999.99   -2.76    0.00000     0.00  LINEAR    4.66787E+00    44.33    0.00000E+00     0.00
  244.00     2.00      -2.31 -999.99   -2.31    0.00000     0.00  LINEAR    4.91626E+00    47.80    0.00000E+00     0.00
  246.00     2.00      -1.88 -999.99   -1.88    0.00000     0.00  LINEAR    5.16766E+00    50.90    0.00000E+00     0.00
  248.00     2.00      -1.46 -999.99   -1.46    0.00000     0.00  LINEAR    5.41758E+00    53.65    0.00000E+00     0.00
  250.00     2.00      -1.08 -999.99   -1.08    0.00000     0.00  LINEAR    5.66168E+00    56.07    0.00000E+00     0.00
  252.00     2.00      -0.73 -999.99   -0.73    0.00000     0.00  LINEAR    5.89579E+00    58.19    0.00000E+00     0.00
  254.00     2.00      -0.41 -999.99   -0.41    0.00000     0.00  LINEAR    6.11606E+00    60.03    0.00000E+00     0.00
  256.00     2.00      -0.13 -999.99   -0.13    0.00000     0.00  LINEAR    6.31894E+00    61.61    0.00000E+00     0.00
  258.00     2.00       0.12 -999.99    0.12    0.00000     0.00  LINEAR    6.50129E+00    62.94    0.00000E+00     0.00
  260.00     2.00       0.33 -999.99    0.33    0.00000     0.00  LINEAR    6.66032E+00    64.04    0.00000E+00     0.00
  262.00     2.00       0.50 -999.99    0.50    0.00000     0.00  LINEAR    6.79368E+00    64.92    0.00000E+00     0.00
  264.00     2.00       0.64 -999.99    0.64    0.00000     0.00  LINEAR    6.89943E+00    65.60    0.00000E+00     0.00
  266.00     2.00       0.73 -999.99    0.73    0.00000     0.00  LINEAR    6.97605E+00    66.07    0.00000E+00     0.00
  268.00     2.00       0.79 -999.99    0.79    0.00000     0.00  LINEAR    7.02245E+00    66.36    0.00000E+00     0.00
  270.00     2.00       0.81 -999.99    0.81    0.00000     0.00  LINEAR    7.03799E+00    66.45    0.00000E+00     0.00
  272.00     2.00       0.79 -999.99    0.79    0.00000     0.00  LINEAR    7.02245E+00    66.36    0.00000E+00     0.00
  274.00     2.00       0.73 -999.99    0.73    0.00000     0.00  LINEAR    6.97605E+00    66.07    0.00000E+00     0.00
  276.00     2.00       0.64 -999.99    0.64    0.00000     0.00  LINEAR    6.89943E+00    65.60    0.00000E+00     0.00
  278.00     2.00       0.50 -999.99    0.50    0.00000     0.00  LINEAR    6.79368E+00    64.92    0.00000E+00     0.00
  280.00     2.00       0.33 -999.99    0.33    0.00000     0.00  LINEAR    6.66032E+00    64.04    0.00000E+00     0.00
  282.00     2.00       0.12 -999.99    0.12    0.00000     0.00  LINEAR    6.50129E+00    62.94    0.00000E+00     0.00
  284.00     2.00      -0.13 -999.99   -0.13    0.00000     0.00  LINEAR    6.31894E+00    61.61    0.00000E+00     0.00
  286.00     2.00      -0.41 -999.99   -0.41    0.00000     0.00  LINEAR    6.11606E+00    60.03    0.00000E+00     0.00
  288.00     2.00      -0.73 -999.99   -0.73    0.00000     0.00  LINEAR    5.89579E+00    58.19    0.00000E+00     0.00
  290.00     2.00      -1.08 -999.99   -1.08    0.00000     0.00  LINEAR    5.66168E+00    56.07    0.00000E+00     0.00
  292.00     2.00      -1.46 -999.99   -1.46    0.00000     0.00  LINEAR    5.41758E+00    53.65    0.00000E+00     0.00
  294.00     2.00      -1.88 -999.99   -1.88    0.00000     0.00  LINEAR    5.16766E+00    50.90    0.00000E+00     0.00
  296.00     2.00      -2.31 -999.99   -2.31    0.00000     0.00  LINEAR    4.91626E+00    47.80    0.00000E+00     0.00
  298.00     2.00      -2.76 -999.99   -2.76    0.00000     0.00  LINEAR    4.66787E+00    44.33    0.00000E+00     0.00
  300.00     2.00      -3.22 -999.99   -3.22    0.00000     0.00  LINEAR    4.42694E+00    40.48    0.00000E+00     0.00
  302.00     2.00      -3.68 -999.99   -3.68    0.00000     0.00  LINEAR    4.19768E+00    36.25    0.00000E+00     0.00
  304.00     2.00      -4.13 -999.99   -4.13    0.00000     0.00  LINEAR    3.98388E+00    31.66    0.00000E+00     0.00
  306.00     2.00      -4.57 -999.99   -4.57    0.00000     0.00  LINEAR    3.78861E+00    26.72    0.00000E+00     0.00
  308.00     2.00      -4.98 -999.99   -4.98    0.00000     0.00  LINEAR    3.61392E+00    21.50    0.00000E+00     0.00
  310.00     2.00      -5.36 -999.99   -5.36    0.00000     0.00  LINEAR    3.46062E+00    16.06    0.00000E+00     0.00
  312.00     2.00      -5.70 -999.99   -5.70    0.00000     0.00  LINEAR    3.32810E+00    10.50    0.00000E+00     0.00
  314.00     2.00      -6.00 -999.99   -6.00    0.00000     0.00  LINEAR    3.21435E+00     4.90    0.00000E+00     0.00
  316.00     2.00      -6.27 -999.99   -6.27    0.00000     0.00  LINEAR    3.11608E+00    -0.63    0.00000E+00     0.00
  318.00     2.00      -6.51 -999.99   -6.51    0.00000     0.00  LINEAR    3.02906E+00    -6.01    0.00000E+00     0.00
  320.00     2.00      -6.75 -999.99   -6.75    0.00000     0.00  LINEAR    2.94853E+00   -11.17    0.00000E+00     0.00
  322.00     2.00      -6.98 -999.99   -6.98    0.00000     0.00  LINEAR    2.86962E+00   -16.08    0.00000E+00     0.00
  324.00     2.00      -7.24 -999.99   -7.24    0.00000     0.00  LINEAR    2.78774E+00   -20.71    0.00000E+00     0.00
  326.00     2.00      -7.52 -999.99   -7.52    0.00000     0.00  LINEAR    2.69886E+00   -25.06    0.00000E+00     0.00
  328.00     2.00      -7.84 -999.99   -7.84    0.00000     0.00  LINEAR    2.59974E+00   -29.13    0.00000E+00     0.00
  330.00     2.00      -8.22 -999.99   -8.22    0.00000     0.00  LINEAR    2.48802E+00   -32.96    0.00000E+00     0.00
  332.00     2.00      -8.67 -999.99   -8.67    0.00000     0.00  LINEAR    2.36225E+00   -36.57    0.00000E+00     0.00
  334.00     2.00      -9.21 -999.99   -9.21    0.00000     0.00  LINEAR    2.22190E+00   -39.99    0.00000E+00     0.00
  336.00     2.00      -9.83 -999.99   -9.83    0.00000     0.00  LINEAR    2.06731E+00   -43.25    0.00000E+00     0.00
  338.00     2.00     -10.57 -999.99  -10.57    0.00000     0.00  LINEAR    1.89958E+00   -46.40    0.00000E+00     0.00
  340.00     2.00     -11.43 -999.99  -11.43    0.00000     0.00  LINEAR    1.72054E+00   -49.47    0.00000E+00     0.00
  342.00     2.00     -12.43 -999.99  -12.43    0.00000     0.00  LINEAR    1.53264E+00   -52.51    0.00000E+00     0.00
  344.00     2.00     -13.61 -999.99  -13.61    0.00000     0.00  LINEAR    1.33881E+00   -55.56    0.00000E+00     0.00
  346.00     2.00     -14.98 -999.99  -14.98    0.00000     0.00  LINEAR    1.14239E+00   -58.67    0.00000E+00     0.00
  348.00     2.00     -16.61 -999.99  -16.61    0.00000     0.00  LINEAR    9.47015E-01   -61.90    0.00000E+00     0.00
  350.00     2.00     -18.57 -999.99  -18.57    0.00000     0.00  LINEAR    7.56468E-01   -65.34    0.00000E+00     0.00
  352.00     2.00     -20.95 -999.99  -20.95    0.00000     0.00  LINEAR    5.74560E-01   -69.07    0.00000E+00     0.00
  354.00     2.00     -23.99 -999.99  -23.99    0.00000     0.00  LINEAR    4.04965E-01   -73.21    0.00000E+00     0.00
  356.00     2.00     -28.15 -999.99  -28.15    0.00000     0.00  LINEAR    2.51022E-01   -77.94    0.00000E+00     0.00
  358.00     2.00     -34.89 -999.99  -34.89    0.00000     0.00  LINEAR    1.15460E-01   -83.49    0.00000E+00     0.00
  360.00     2.00    -999.99 -999.99 -999.99    0.00000     0.00  LINEAR    6.15252E-11    89.84    0.00000E+00     0.00
    0.00     4.00    -999.99 -999.99 -999.99    0.00000     0.00            0.00000E+00     0.00    0.00000E+00     0.00
    2.00     4.00     -36.56 -999.99  -36.56    0.00000     0.00  LINEAR    9.53030E-02    81.67    0.00000E+00     0.00
    4.00     4.00     -31.38 -999.99  -31.38    0.00000     0.00  LINEAR    1.73007E-01    71.54    0.00000E+00     0.00
    6.00     4.00     -28.55 -999.99  -28.55    0.00000     0.00  LINEAR    2.39557E-01    59.17    0.00000E+00     0.00
    8.00     4.00     -26.42 -999.99  -26.42    0.00000     0.00  LINEAR    3.06233E-01    44.79    0.00000E+00     0.00
   10.00     4.00     -24.36 -999.99  -24.36    0.00000     0.00  LINEAR    3.88011E-01    29.56    0.00000E+00     0.00
   12.00     4.00     -22.17 -999.99  -22.17    0.00000     0.00  LINEAR    4.99394E-01    15.13    0.00000E+00     0.00
   14.00     4.00     -19.88 -999.99  -19.88    0.00000     0.00  LINEAR    6.50179E-01     2.71    0.00000E+00     0.00
   16.00     4.00     -17.61 -999.99  -17.61    0.00000     0.00  LINEAR    8.44722E-01    -7.38    0.00000E+00     0.00
   18.00     4.00     -15.44 -999.99  -15.44    0.00000     0.00  LINEAR    1.08375E+00   -15.42    0.00000E+00     0.00
   20.00     4.00     -13.43 -999.99  -13.43    0.00000     0.00  LINEAR    1.36616E+00   -21.85    0.00000E+00     0.00
   22.00     4.00     -11.58 -999.99  -11.58    0.00000     0.00  LINEAR    1.68992E+00   -27.05    0.00000E+00     0.00
   24.00     4.00      -9.90 -999.99   -9.90    0.00000     0.00  LINEAR    2.05251E+00   -31.33    0.00000E+00     0.00
   26.00     4.00      -8.35 -999.99   -8.35    0.00000     0.00  LINEAR    2.45100E+00   -34.93    0.00000E+00     0.00
   28.00     4.00      -6.95 -999.99   -6.95    0.00000     0.00  LINEAR    2.88213E+00   -38.00    0.00000E+00     0.00
   30.00     4.00      -5.66 -999.99   -5.66    0.00000     0.00  LINEAR    3.34239E+00   -40.66    0.00000E+00     0.00
   32.00     4.00      -4.48 -999.99   -4.48    0.00000     0.00  LINEAR    3.82800E+00   -43.01    0.00000E+00     0.00
   34.00     4.00      -3.40 -999.99   -3.40    0.00000     0.00  LINEAR    4.33499E+00   -45.09    0.00000E+00     0.00
   36.00     4.00      -2.41 -999.99   -2.41    0.00000     0.00  LINEAR    4.85928E+00   -46.96    0.00000E+00     0.00
   38.00     4.00      -1.50 -999.99   -1.50    0.00000     0.00  LINEAR    5.39669E+00   -48.66    0.00000E+00     0.00
   40.00     4.00      -0.66 -999.99   -0.66    0.00000     0.00  LINEAR    5.94304E+00   -50.21    0.00000E+00     0.00
   42.00     4.00       0.11 -999.99    0.11    0.00000     0.00  LINEAR    6.49417E+00   -51.64    0.00000E+00     0.00
   44.00     4.00       0.82 -999.99    0.82    0.00000     0.00  LINEAR    7.04605E+00   -52.96    0.00000E+00     0.00
   46.00     4.00       1.47 -999.99    1.47    0.00000     0.00  LINEAR    7.59477E+00   -54.18    0.00000E+00     0.00
   48.00     4.00       2.07 -999.99    2.07    0.00000     0.00  LINEAR    8.13665E+00   -55.33    0.00000E+00     0.00
   50.00     4.00       2.62 -999.99    2.62    0.00000     0.00  LINEAR    8.66821E+00   -56.39    0.00000E+00     0.00
   52.00     4.00       3.12 -999.99    3.12    0.00000     0.00  LINEAR    9.18628E+00   -57.39    0.00000E+00     0.00
   54.00     4.00       3.58 -999.99    3.58    0.00000     0.00  LINEAR    9.68795E+00   -58.33    0.00000E+00     0.00
   56.00     4.00       4.01 -999.99    4.01    0.00000     0.00  LINEAR    1.01706E+01   -59.20    0.00000E+00     0.00
   58.00     4.00       4.39 -999.99    4.39    0.00000     0.00  LINEAR    1.06321E+01   -60.02    0.00000E+00     0.00
   60.00     4.00       4.74 -999.99    4.74    0.00000     0.00  LINEAR    1.10704E+01   -60.79    0.00000E+00     0.00
   62.00     4.00       5.06 -999.99    5.06    0.00000     0.00  LINEAR    1.14838E+01   -61.50    0.00000E+00     0.00
   64.00     4.00       5.35 -999.99    5.35    0.00000     0.00  LINEAR    1.18711E+01   -62.17    0.00000E+00     0.00
   66.00     4.00       5.61 -999.99    5.61    0.00000     0.00  LINEAR    1.22312E+01   -62.78    0.00000E+00     0.00
   68.00     4.00       5.84 -999.99    5.84    0.00000     0.00  LINEAR    1.25633E+01   -63.35    0.00000E+00     0.00
   70.00     4.00       6.05 -999.99    6.05    0.00000     0.00  LINEAR    1.28668E+01   -63.87    0.00000E+00     0.00
   72.00     4.00       6.23 -999.99    6.23    0.00000     0.00  LINEAR    1.31414E+01   -64.34    0.00000E+00     0.00
   74.00     4.00       6.39 -999.99    6.39    0.00000     0.00  LINEAR    1.33869E+01   -64.77    0.00000E+00     0.00
   76.00     4.00       6.53 -999.99    6.53    0.00000     0.00  LINEAR    1.36031E+01   -65.14    0.00000E+00     0.00
   78.00     4.00       6.65 -999.99    6.65    0.00000     0.00  LINEAR    1.37901E+01   -65.47    0.00000E+00     0.00
   80.00     4.00       6.75 -999.99    6.75    0.00000     0.00  LINEAR    1.39480E+01   -65.74    0.00000E+00     0.00
   82.00     4.00       6.83 -999.99    6.83    0.00000     0.00  LINEAR    1.40769E+01   -65.97    0.00000E+00     0.00
   84.00     4.00       6.89 -999.99    6.89    0.00000     0.00  LINEAR    1.41770E+01   -66.14    0.00000E+00     0.00
   86.00     4.00       6.93 -999.99    6.93    0.00000     0.00  LINEAR    1.42484E+01   -66.27    0.00000E+00     0.00
   88.00     4.00       6.96 -999.99    6.96    0.00000     0.00  LINEAR    1.42911E+01   -66.35    0.00000E+00     0.00
   90.00     4.00       6.97 -999.99    6.97    0.00000     0.00  LINEAR    1.43054E+01   -66.37    0.00000E+00     0.00
   92.00     4.00       6.96 -999.99    6.96    0.00000     0.00  LINEAR    1.42911E+01   -66.35    0.00000E+00     0.00
   94.00     4.00       6.93 -999.99    6.93    0.00000     0.00  LINEAR    1.42484E+01   -66.27    0.00000E+00     0.00
   96.00     4.00       6.89 -999.99    6.89    0.00000     0.00  LINEAR    1.41770E+01   -66.14    0.00000E+00     0.00
   98.00     4.00       6.83 -999.99    6.83    0.00000     0.00  LINEAR    1.40769E+01   -65.97    0.00000E+00     0.00
  100.00     4.00       6.75 -999.99    6.75    0.00000     0.00  LINEAR    1.39480E+01   -65.74    0.00000E+00     0.00
  102.00     4.00       6.65 -999.99    6.65    0.00000     0.00  LINEAR    1.37901E+01   -65.47    0.00000E+00     0.00
  104.00     4.00       6.53 -999.99    6.53    0.00000     0.00  LINEAR    1.36031E+01   -65.14    0.00000E+00     0.00
  106.00     4.00       6.39 -999.99    6.39    0.00000     0.00  LINEAR    1.33869E+01   -64.77    0.00000E+00     0.00
  108.00     4.00       6.23 -999.99    6.23    0.00000     0.00  LINEAR    1.31414E+01   -64.34    0.00000E+00     0.00
  110.00     4.00       6.05 -999.99    6.05    0.00000     0.00  LINEAR    1.28668E+01   -63.87    0.00000E+00     0.00
  112.00     4.00       5.84 -999.99    5.84    0.00000     0.00  LINEAR    1.25633E+01   -63.35    0.00000E+00     0.00
  114.00     4.00       5.61 -999.99    5.61    0.00000     0.00  LINEAR    1.22312E+01   -62.78    0.00000E+00     0.00
  116.00     4.00       5.35 -999.99    5.35    0.00000     0.00  LINEAR    1.18711E+01   -62.17    0.00000E+00     0.00
  118.00     4.00       5.06 -999.99    5.06    0.00000     0.00  LINEAR    1.14838E+01   -61.50    0.00000E+00     0.00
  120.00     4.00       4.74 -999.99    4.74    0.00000     0.00  LINEAR    1.10704E+01   -60.79    0.00000E+00     0.00
  122.00     4.00       4.39 -999.99    4.39    0.00000     0.00  LINEAR    1.06321E+01   -60.02    0.00000E+00     0.00
  124.00     4.00       4.01 -999.99    4.01    0.00000     0.00  LINEAR    1.01706E+01   -59.20    0.00000E+00     0.00
  126.00     4.00       3.58 -999.99    3.58    0.00000     0.00  LINEAR    9.68795E+00   -58.33    0.00000E+00     0.00
  128.00     4.00       3.12 -999.99    3.12    0.00000     0.00  LINEAR    9.18628E+00   -57.39    0.00000E+00     0.00
  130.00     4.00       2.62 -999.99    2.62    0.00000     0.00  LINEAR    8.66821E+00   -56.39    0.00000E+00     0.00
  132.00     4.00       2.07 -999.99    2.07    0.00000     0.00  LINEAR    8.13665E+00   -55.33    0.00000E+00     0.00
  134.00     4.00       1.47 -999.99    1.47    0.00000     0.00  LINEAR    7.59477E+00   -54.18    0.00000E+00     0.00
  136.00     4.00       0.82 -999.99    0.82    0.00000     0.00  LINEAR    7.04605E+00   -52.96    0.00000E+00     0.00
  138.00     4.00       0.11 -999.99    0.11    0.00000     0.00  LINEAR    6.49417E+00   -51.64    0.00000E+00     0.00
  140.00     4.00      -0.66 -999.99   -0.66    0.00000     0.00  LINEAR    5.94304E+00   -50.21    0.00000E+00     0.00
  142.00     4.00      -1.50 -999.99   -1.50    0.00000     0.00  LINEAR    5.39669E+00   -48.66    0.00000E+00     0.00
  144.00     4.00      -2.41 -999.99   -2.41    0.00000     0.00  LINEAR    4.85928E+00   -46.96    0.00000E+00     0.00
  146.00     4.00      -3.40 -999.99   -3.40    0.00000     0.00  LINEAR    4.33499E+00   -45.09    0.00000E+00     0.00
  148.00     4.00      -4.48 -999.99   -4.48    0.00000     0.00  LINEAR    3.82800E+00   -43.01    0.00000E+00     0.00
  150.00     4.00      -5.66 -999.99   -5.66    0.00000     0.00  LINEAR    3.34239E+00   -40.66    0.00000E+00     0.00
  152.00     4.00      -6.95 -999.99   -6.95    0.00000     0.00  LINEAR    2.88213E+00   -38.00    0.00000E+00     0.00
  154.00     4.00      -8.35 -999.99   -8.35    0.00000     0.00  LINEAR    2.45100E+00   -34.93    0.00000E+00     0.00
  156.00     4.00      -9.90 -999.99   -9.90    0.00000     0.00  LINEAR    2.05251E+00   -31.33    0.00000E+00     0.00
  158.00     4.00     -11.58 -999.99  -11.58    0.00000     0.00  LINEAR    1.68992E+00   -27.05    0.00000E+00     0.00
  160.00     4.00     -13.43 -999.99  -13.43    0.00000     0.00  LINEAR    1.36616E+00   -21.85    0.00000E+00     0.00
  162.00     4.00     -15.44 -999.99  -15.44    0.00000     0.00  LINEAR    1.08375E+00   -15.42    0.00000E+00     0.00
  164.00     4.00     -17.61 -999.99  -17.61    0.00000     0.00  LINEAR    8.44722E-01    -7.38    0.00000E+00     0.00
  166.00     4.00     -19.88 -999.99  -19.88    0.00000     0.00  LINEAR    6.50179E-01     2.71    0.00000E+00     0.00
  168.00     4.00     -22.17 -999.99  -22.17    0.00000     0.00  LINEAR    4.99394E-01    15.13    0.00000E+00     0.00
  170.00     4.00     -24.36 -999.99  -24.36    0.00000     0.00  LINEAR    3.88011E-01    29.56    0.00000E+00     0.00
  172.00     4.00     -26.42 -999.99  -26.42    0.00000     0.00  LINEAR    3.06233E-01    44.79    0.00000E+00     0.00
  174.00     4.00     -28.55 -999.99  -28.55    0.00000     0.00  LINEAR    2.39557E-01    59.17    0.00000E+00     0.00
  176.00     4.00     -31.38 -999.99  -31.38    0.00000     0.00  LINEAR    1.73007E-01    71.54    0.00000E+00     0.00
  178.00     4.00     -36.56 -999.99  -36.56    0.00000     0.00  LINEAR    9.53030E-02    81.67    0.00000E+00     0.00
  180.00     4.00    -999.99 -999.99 -999.99    0.00000     0.00  LINEAR    3.07626E-11   -90.16    0.00000E+00     0.00
  182.00     4.00     -34.89 -999.99  -34.89    0.00000     0.00  LINEAR    1.15442E-01   -83.50    0.00000E+00     0.00
  184.00     4.00     -28.15 -999.99  -28.15    0.00000     0.00  LINEAR    2.50951E-01   -77.96    0.00000E+00     0.00
  186.00     4.00     -24.00 -999.99  -24.00    0.00000     0.00  LINEAR    4.04817E-01   -73.24    0.00000E+00     0.00
  188.00     4.00     -20.96 -999.99  -20.96    0.00000     0.00  LINEAR    5.74324E-01   -69.09    0.00000E+00     0.00
  190.00     4.00     -18.57 -999.99  -18.57    0.00000     0.00  LINEAR    7.56148E-01   -65.37    0.00000E+00     0.00
  192.00     4.00     -16.62 -999.99  -16.62    0.00000     0.00  LINEAR    9.46632E-01   -61.94    0.00000E+00     0.00
  194.00     4.00     -14.99 -999.99  -14.99    0.00000     0.00  LINEAR    1.14198E+00   -58.71    0.00000E+00     0.00
  196.00     4.00     -13.61 -999.99  -13.61    0.00000     0.00  LINEAR    1.33842E+00   -55.60    0.00000E+00     0.00
  198.00     4.00     -12.43 -999.99  -12.43    0.00000     0.00  LINEAR    1.53233E+00   -52.56    0.00000E+00     0.00
  200.00     4.00     -11.43 -999.99  -11.43    0.00000     0.00  LINEAR    1.72038E+00   -49.53    0.00000E+00     0.00
  202.00     4.00     -10.57 -999.99  -10.57    0.00000     0.00  LINEAR    1.89964E+00   -46.47    0.00000E+00     0.00
  204.00     4.00      -9.83 -999.99   -9.83    0.00000     0.00  LINEAR    2.06766E+00   -43.33    0.00000E+00     0.00
  206.00     4.00      -9.20 -999.99   -9.20    0.00000     0.00  LINEAR    2.22261E+00   -40.07    0.00000E+00     0.00
  208.00     4.00      -8.67 -999.99   -8.67    0.00000     0.00  LINEAR    2.36337E+00   -36.67    0.00000E+00     0.00
  210.00     4.00      -8.22 -999.99   -8.22    0.00000     0.00  LINEAR    2.48958E+00   -33.07    0.00000E+00     0.00
  212.00     4.00      -7.84 -999.99   -7.84    0.00000     0.00  LINEAR    2.60175E+00   -29.26    0.00000E+00     0.00
  214.00     4.00      -7.51 -999.99   -7.51    0.00000     0.00  LINEAR    2.70129E+00   -25.21    0.00000E+00     0.00
  216.00     4.00      -7.23 -999.99   -7.23    0.00000     0.00  LINEAR    2.79052E+00   -20.88    0.00000E+00     0.00
  218.00     4.00      -6.98 -999.99   -6.98    0.00000     0.00  LINEAR    2.87264E+00   -16.28    0.00000E+00     0.00
  220.00     4.00      -6.74 -999.99   -6.74    0.00000     0.00  LINEAR    2.95160E+00   -11.39    0.00000E+00     0.00
  222.00     4.00      -6.51 -999.99   -6.51    0.00000     0.00  LINEAR    3.03197E+00    -6.26    0.00000E+00     0.00
  224.00     4.00      -6.26 -999.99   -6.26    0.00000     0.00  LINEAR    3.11855E+00    -0.90    0.00000E+00     0.00
  226.00     4.00      -5.99 -999.99   -5.99    0.00000     0.00  LINEAR    3.21608E+00     4.60    0.00000E+00     0.00
  228.00     4.00      -5.70 -999.99   -5.70    0.00000     0.00  LINEAR    3.32879E+00    10.17    0.00000E+00     0.00
  230.00     4.00      -5.36 -999.99   -5.36    0.00000     0.00  LINEAR    3.45996E+00    15.72    0.00000E+00     0.00
  232.00     4.00      -4.99 -999.99   -4.99    0.00000     0.00  LINEAR    3.61166E+00    21.14    0.00000E+00     0.00
  234.00     4.00      -4.58 -999.99   -4.58    0.00000     0.00  LINEAR    3.78454E+00    26.35    0.00000E+00     0.00
  236.00     4.00      -4.15 -999.99   -4.15    0.00000     0.00  LINEAR    3.97786E+00    31.29    0.00000E+00     0.00
  238.00     4.00      -3.70 -999.99   -3.70    0.00000     0.00  LINEAR    4.18962E+00    35.88    0.00000E+00     0.00
  240.00     4.00      -3.24 -999.99   -3.24    0.00000     0.00  LINEAR    4.41681E+00    40.12    0.00000E+00     0.00
  242.00     4.00      -2.78 -999.99   -2.78    0.00000     0.00  LINEAR    4.65571E+00    43.97    0.00000E+00     0.00
  244.00     4.00      -2.33 -999.99   -2.33    0.00000     0.00  LINEAR    4.90213E+00    47.44    0.00000E+00     0.00
  246.00     4.00      -1.90 -999.99   -1.90    0.00000     0.00  LINEAR    5.15165E+00    50.55    0.00000E+00     0.00
  248.00     4.00      -1.49 -999.99   -1.49    0.00000     0.00  LINEAR    5.39982E+00    53.31    0.00000E+00     0.00
  250.00     4.00      -1.11 -999.99   -1.11    0.00000     0.00  LINEAR    5.64229E+00    55.75    0.00000E+00     0.00
  252.00     4.00      -0.76 -999.99   -0.76    0.00000     0.00  LINEAR    5.87493E+00    57.88    0.00000E+00     0.00
  254.00     4.00      -0.44 -999.99   -0.44    0.00000     0.00  LINEAR    6.09387E+00    59.72    0.00000E+00     0.00
  256.00     4.00      -0.16 -999.99   -0.16    0.00000     0.00  LINEAR    6.29558E+00    61.30    0.00000E+00     0.00
  258.00     4.00       0.09 -999.99    0.09    0.00000     0.00  LINEAR    6.47691E+00    62.64    0.00000E+00     0.00
  260.00     4.00       0.30 -999.99    0.30    0.00000     0.00  LINEAR    6.63509E+00    63.74    0.00000E+00     0.00
  262.00     4.00       0.47 -999.99    0.47    0.00000     0.00  LINEAR    6.76775E+00    64.63    0.00000E+00     0.00
  264.00     4.00       0.60 -999.99    0.60    0.00000     0.00  LINEAR    6.87296E+00    65.31    0.00000E+00     0.00
  266.00     4.00       0.70 -999.99    0.70    0.00000     0.00  LINEAR    6.94919E+00    65.79    0.00000E+00     0.00
  268.00     4.00       0.76 -999.99    0.76    0.00000     0.00  LINEAR    6.99537E+00    66.07    0.00000E+00     0.00
  270.00     4.00       0.77 -999.99    0.77    0.00000     0.00  LINEAR    7.01083E+00    66.17    0.00000E+00     0.00
  272.00     4.00       0.76 -999.99    0.76    0.00000     0.00  LINEAR    6.99537E+00    66.07    0.00000E+00     0.00
  274.00     4.00       0.70 -999.99    0.70    0.00000     0.00  LINEAR    6.94919E+00    65.79    0.00000E+00     0.00
  276.00     4.00       0.60 -999.99    0.60    0.00000     0.00  LINEAR    6.87296E+00    65.31    0.00000E+00     0.00
  278.00     4.00       0.47 -999.99    0.47    0.00000     0.00  LINEAR    6.76775E+00    64.63    0.00000E+00     0.00
  280.00     4.00       0.30 -999.99    0.30    0.00000     0.00  LINEAR    6.63509E+00    63.74    0.00000E+00     0.00
  282.00     4.00       0.09 -999.99    0.09    0.00000     0.00  LINEAR    6.47691E+00    62.64    0.00000E+00     0.00
  284.00     4.00      -0.16 -999.99   -0.16    0.00000     0.00  LINEAR    6.29558E+00    61.30    0.00000E+00     0.00
  286.00     4.00      -0.44 -999.99   -0.44    0.00000     0.00  LINEAR    6.09387E+00    59.72    0.00000E+00     0.00
  288.00     4.00      -0.76 -999.99   -0.76    0.00000     0.00  LINEAR    5.87493E+00    57.88    0.00000E+00     0.00
  290.00     4.00      -1.11 -999.99   -1.11    0.00000     0.00  LINEAR    5.64229E+00    55.75    0.00000E+00     0.00
  292.00     4.00      -1.49 -999.99   -1.49    0.00000     0.00  LINEAR    5.39982E+00    53.31    0.00000E+00     0.00
  294.00     4.00      -1.90 -999.99   -1.90    0.00000     0.00  LINEAR    5.15165E+00    50.55    0.00000E+00     0.00
  296.00     4.00      -2.33 -999.99   -2.33    0.00000     0.00  LINEAR    4.90213E+00    47.44    0.00000E+00     0.00
  298.00     4.00      -2.78 -999.99   -2.78    0.00000     0.00  LINEAR    4.65571E+00    43.97    0.00000E+00     0.00
  300.00     4.00      -3.24 -999.99   -3.24    0.00000     0.00  LINEAR    4.41681E+00    40.12    0.00000E+00     0.00
  302.00     4.00      -3.70 -999.99   -3.70    0.00000     0.00  LINEAR    4.18962E+00    35.88    0.00000E+00     0.00
  304.00     4.00      -4.15 -999.99   -4.15    0.00000     0.00  LINEAR    3.97786E+00    31.29    0.00000E+00     0.00
  306.00     4.00      -4.58 -999.99   -4.58    0.00000     0.00  LINEAR    3.78454E+00    26.35    0.00000E+00     0.00
  308.00     4.00      -4.99 -999.99   -4.99    0.00000     0.00  LINEAR    3.61166E+00    21.14    0.00000E+00     0.00
  310.00     4.00      -5.36 -999.99   -5.36    0.00000     0.00  LINEAR    3.45996E+00    15.72    0.00000E+00     0.00
  312.00     4.00      -5.70 -999.99   -5.70    0.00000     0.00  LINEAR    3.32879E+00    10.17    0.00000E+00     0.00
  314.00     4.00      -5.99 -999.99   -5.99    0.00000     0.00  LINEAR    3.21608E+00     4.60    0.00000E+00     0.00
  316.00     4.00      -6.26 -999.99   -6.26    0.00000     0.00  LINEAR    3.11855E+00    -0.90    0.00000E+00     0.00
  318.00     4.00      -6.51 -999.99   -6.51    0.00000     0.00  LINEAR    3.03197E+00    -6.26    0.00000E+00     0.00
  320.00     4.00      -6.74 -999.99   -6.74    0.00000     0.00  LINEAR    2.95160E+00   -11.39    0.00000E+00     0.00
  322.00     4.00      -6.98 -999.99   -6.98    0.00000     0.00  LINEAR    2.87264E+00   -16.28    0.00000E+00     0.00
  324.00     4.00      -7.23 -999.99   -7.23    0.00000     0.00  LINEAR    2.79052E+00   -20.88    0.00000E+00     0.00
  326.00     4.00      -7.51 -999.99   -7.51    0.00000     0.00  LINEAR    2.70129E+00   -25.21    0.00000E+00     0.00
  328.00     4.00      -7.84 -999.99   -7.84    0.00000     0.00  LINEAR    2.60175E+00   -29.26    0.00000E+00     0.00
  330.00     4.00      -8.22 -999.99   -8.22    0.00000     0.00  LINEAR    2.48958E+00   -33.07    0.00000E+00     0.00
  332.00     4.00      -8.67 -999.99   -8.67    0.00000     0.00  LINEAR    2.36337E+00   -36.67    0.00000E+00     0.00
  334.00     4.00      -9.20 -999.99   -9.20    0.00000     0.00  LINEAR    2.22261E+00   -40.07    0.00000E+00     0.00
  336.00     4.00      -9.83 -999.99   -9.83    0.00000     0.00  LINEAR    2.06766E+00   -43.33    0.00000E+00     0.00
  338.00     4.00     -10.57 -999.99  -10.57    0.00000     0.00  LINEAR    1.89964E+00   -46.47    0.00000E+00     0.00
  340.00     4.00     -11.43 -999.99  -11.43    0.00000     0.00  LINEAR    1.72038E+00   -49.53    0.00000E+00     0.00
  342.00     4.00     -12.43 -999.99  -12.43    0.00000     0.00  LINEAR    1.53233E+00   -52.56    0.00000E+00     0.00
  344.00     4.00     -13.61 -999.99  -13.61    0.00000     0.00  LINEAR    1.33842E+00   -55.60    0.00000E+00     0.00
  346.00     4.00     -14.99 -999.99  -14.99    0.00000     0.00  LINEAR    1.14198E+00   -58.71    0.00000E+00     0.00
  348.00     4.00     -16.62 -999.99  -16.62    0.00000     0.00  LINEAR    9.46632E-01   -61.94    0.00000E+00     0.00
  350.00     4.00     -18.57 -999.99  -18.57    0.00000     0.00  LINEAR    7.56148E-01   -65.37    0.00000E+00     0.00
  352.00     4.00     -20.96 -999.99  -20.96    0.00000     0.00  LINEAR    5.74324E-01   -69.09    0.00000E+00     0.00
  354.00     4.00     -24.00 -999.99  -24.00    0.00000     0.00  LINEAR    4.04817E-01   -73.24    0.00000E+00     0.00
  356.00     4.00     -28.15 -999.99  -28.15    0.00000     0.00  LINEAR    2.50951E-01   -77.96    0.00000E+00     0.00
  358.00     4.00     -34.89 -999.99  -34.89    0.00000     0.00  LINEAR    1.15442E-01   -83.50    0.00000E+00     0.00
  360.00     4.00    -999.99 -999.99 -999.99    0.00000     0.00  LINEAR    6.15252E-11    89.84    0.00000E+00     0.00
    0.00     6.00    -999.99 -999.99 -999.99    0.00000     0.00            0.00000E+00     0.00    0.00000E+00     0.00
    2.00     6.00     -36.56 -999.99  -36.56    0.00000     0.00  LINEAR    9.53321E-02    81.70    0.00000E+00     0.00
    4.00     6.00     -31.37 -999.99  -31.37    0.00000     0.00  LINEAR    1.73105E-01    71.61    0.00000E+00     0.00
    6.00     6.00     -28.55 -999.99  -28.55    0.00000     0.00  LINEAR    2.39701E-01    59.29    0.00000E+00     0.00
    8.00     6.00     -26.42 -999.99  -26.42    0.00000     0.00  LINEAR    3.06299E-01    44.98    0.00000E+00     0.00
   10.00     6.00     -24.37 -999.99  -24.37    0.00000     0.00  LINEAR    3.87760E-01    29.79    0.00000E+00     0.00
   12.00     6.00     -22.19 -999.99  -22.19    0.00000     0.00  LINEAR    4.98543E-01    15.38    0.00000E+00     0.00
   14.00     6.00     -19.90 -999.99  -19.90    0.00000     0.00  LINEAR    6.48474E-01     2.96    0.00000E+00     0.00
   16.00     6.00     -17.63 -999.99  -17.63    0.00000     0.00  LINEAR    8.41974E-01    -7.16    0.00000E+00     0.00
   18.00     6.00     -15.47 -999.99  -15.47    0.00000     0.00  LINEAR    1.07982E+00   -15.22    0.00000E+00     0.00
   20.00     6.00     -13.46 -999.99  -13.46    0.00000     0.00  LINEAR    1.36094E+00   -21.66    0.00000E+00     0.00
   22.00     6.00     -11.62 -999.99  -11.62    0.00000     0.00  LINEAR    1.68334E+00   -26.88    0.00000E+00     0.00
   24.00     6.00      -9.93 -999.99   -9.93    0.00000     0.00  LINEAR    2.04451E+00   -31.18    0.00000E+00     0.00
   26.00     6.00      -8.39 -999.99   -8.39    0.00000     0.00  LINEAR    2.44154E+00   -34.79    0.00000E+00     0.00
[...]
   38.00   180.00      -6.99 -999.99   -6.99    0.00000     0.00  LINEAR    2.86862E+00   163.98    0.00000E+00     0.00
   40.00   180.00      -6.75 -999.99   -6.75    0.00000     0.00  LINEAR    2.94751E+00   168.90    0.00000E+00     0.00
   42.00   180.00      -6.52 -999.99   -6.52    0.00000     0.00  LINEAR    3.02810E+00   174.08    0.00000E+00     0.00
   44.00   180.00      -6.27 -999.99   -6.27    0.00000     0.00  LINEAR    3.11527E+00   179.47    0.00000E+00     0.00
   46.00   180.00      -6.00 -999.99   -6.00    0.00000     0.00  LINEAR    3.21379E+00  -175.00    0.00000E+00     0.00
   48.00   180.00      -5.70 -999.99   -5.70    0.00000     0.00  LINEAR    3.32789E+00  -169.40    0.00000E+00     0.00
   50.00   180.00      -5.36 -999.99   -5.36    0.00000     0.00  LINEAR    3.46086E+00  -163.82    0.00000E+00     0.00
   52.00   180.00      -4.98 -999.99   -4.98    0.00000     0.00  LINEAR    3.61469E+00  -158.38    0.00000E+00     0.00
   54.00   180.00      -4.57 -999.99   -4.57    0.00000     0.00  LINEAR    3.78999E+00  -153.16    0.00000E+00     0.00
   56.00   180.00      -4.13 -999.99   -4.13    0.00000     0.00  LINEAR    3.98592E+00  -148.22    0.00000E+00     0.00
   58.00   180.00      -3.68 -999.99   -3.68    0.00000     0.00  LINEAR    4.20040E+00  -143.62    0.00000E+00     0.00
   60.00   180.00      -3.21 -999.99   -3.21    0.00000     0.00  LINEAR    4.43034E+00  -139.40    0.00000E+00     0.00
   62.00   180.00      -2.75 -999.99   -2.75    0.00000     0.00  LINEAR    4.67196E+00  -135.55    0.00000E+00     0.00
   64.00   180.00      -2.30 -999.99   -2.30    0.00000     0.00  LINEAR    4.92101E+00  -132.09    0.00000E+00     0.00
   66.00   180.00      -1.87 -999.99   -1.87    0.00000     0.00  LINEAR    5.17303E+00  -128.99    0.00000E+00     0.00
   68.00   180.00      -1.46 -999.99   -1.46    0.00000     0.00  LINEAR    5.42354E+00  -126.24    0.00000E+00     0.00
   70.00   180.00      -1.07 -999.99   -1.07    0.00000     0.00  LINEAR    5.66818E+00  -123.82    0.00000E+00     0.00
   72.00   180.00      -0.72 -999.99   -0.72    0.00000     0.00  LINEAR    5.90278E+00  -121.70    0.00000E+00     0.00
   74.00   180.00      -0.40 -999.99   -0.40    0.00000     0.00  LINEAR    6.12349E+00  -119.86    0.00000E+00     0.00
   76.00   180.00      -0.12 -999.99   -0.12    0.00000     0.00  LINEAR    6.32676E+00  -118.29    0.00000E+00     0.00
   78.00   180.00       0.13 -999.99    0.13    0.00000     0.00  LINEAR    6.50944E+00  -116.96    0.00000E+00     0.00
   80.00   180.00       0.34 -999.99    0.34    0.00000     0.00  LINEAR    6.66876E+00  -115.87    0.00000E+00     0.00
   82.00   180.00       0.51 -999.99    0.51    0.00000     0.00  LINEAR    6.80235E+00  -114.98    0.00000E+00     0.00
   84.00   180.00       0.65 -999.99    0.65    0.00000     0.00  LINEAR    6.90828E+00  -114.31    0.00000E+00     0.00
   86.00   180.00       0.74 -999.99    0.74    0.00000     0.00  LINEAR    6.98503E+00  -113.83    0.00000E+00     0.00
   88.00   180.00       0.80 -999.99    0.80    0.00000     0.00  LINEAR    7.03151E+00  -113.55    0.00000E+00     0.00
   90.00   180.00       0.82 -999.99    0.82    0.00000     0.00  LINEAR    7.04708E+00  -113.45    0.00000E+00     0.00
   92.00   180.00       0.80 -999.99    0.80    0.00000     0.00  LINEAR    7.03151E+00  -113.55    0.00000E+00     0.00
   94.00   180.00       0.74 -999.99    0.74    0.00000     0.00  LINEAR    6.98503E+00  -113.83    0.00000E+00     0.00
   96.00   180.00       0.65 -999.99    0.65    0.00000     0.00  LINEAR    6.90828E+00  -114.31    0.00000E+00     0.00
   98.00   180.00       0.51 -999.99    0.51    0.00000     0.00  LINEAR    6.80235E+00  -114.98    0.00000E+00     0.00
  100.00   180.00       0.34 -999.99    0.34    0.00000     0.00  LINEAR    6.66876E+00  -115.87    0.00000E+00     0.00
  102.00   180.00       0.13 -999.99    0.13    0.00000     0.00  LINEAR    6.50944E+00  -116.96    0.00000E+00     0.00
  104.00   180.00      -0.12 -999.99   -0.12    0.00000     0.00  LINEAR    6.32676E+00  -118.29    0.00000E+00     0.00
  106.00   180.00      -0.40 -999.99   -0.40    0.00000     0.00  LINEAR    6.12349E+00  -119.86    0.00000E+00     0.00
  108.00   180.00      -0.72 -999.99   -0.72    0.00000     0.00  LINEAR    5.90278E+00  -121.70    0.00000E+00     0.00
  110.00   180.00      -1.07 -999.99   -1.07    0.00000     0.00  LINEAR    5.66818E+00  -123.82    0.00000E+00     0.00
  112.00   180.00      -1.46 -999.99   -1.46    0.00000     0.00  LINEAR    5.42354E+00  -126.24    0.00000E+00     0.00
  114.00   180.00      -1.87 -999.99   -1.87    0.00000     0.00  LINEAR    5.17303E+00  -128.99    0.00000E+00     0.00
  116.00   180.00      -2.30 -999.99   -2.30    0.00000     0.00  LINEAR    4.92101E+00  -132.09    0.00000E+00     0.00
  118.00   180.00      -2.75 -999.99   -2.75    0.00000     0.00  LINEAR    4.67196E+00  -135.55    0.00000E+00     0.00
  120.00   180.00      -3.21 -999.99   -3.21    0.00000     0.00  LINEAR    4.43034E+00  -139.40    0.00000E+00     0.00
  122.00   180.00      -3.68 -999.99   -3.68    0.00000     0.00  LINEAR    4.20040E+00  -143.62    0.00000E+00     0.00
  124.00   180.00      -4.13 -999.99   -4.13    0.00000     0.00  LINEAR    3.98592E+00  -148.22    0.00000E+00     0.00
  126.00   180.00      -4.57 -999.99   -4.57    0.00000     0.00  LINEAR    3.78999E+00  -153.16    0.00000E+00     0.00
  128.00   180.00      -4.98 -999.99   -4.98    0.00000     0.00  LINEAR    3.61469E+00  -158.38    0.00000E+00     0.00
  130.00   180.00      -5.36 -999.99   -5.36    0.00000     0.00  LINEAR    3.46086E+00  -163.82    0.00000E+00     0.00
  132.00   180.00      -5.70 -999.99   -5.70    0.00000     0.00  LINEAR    3.32789E+00  -169.40    0.00000E+00     0.00
  134.00   180.00      -6.00 -999.99   -6.00    0.00000     0.00  LINEAR    3.21379E+00  -175.00    0.00000E+00     0.00
  136.00   180.00      -6.27 -999.99   -6.27    0.00000     0.00  LINEAR    3.11527E+00   179.47    0.00000E+00     0.00
  138.00   180.00      -6.52 -999.99   -6.52    0.00000     0.00  LINEAR    3.02810E+00   174.08    0.00000E+00     0.00
  140.00   180.00      -6.75 -999.99   -6.75    0.00000     0.00  LINEAR    2.94751E+00   168.90    0.00000E+00     0.00
  142.00   180.00      -6.99 -999.99   -6.99    0.00000     0.00  LINEAR    2.86862E+00   163.98    0.00000E+00     0.00
  144.00   180.00      -7.24 -999.99   -7.24    0.00000     0.00  LINEAR    2.78681E+00   159.35    0.00000E+00     0.00
  146.00   180.00      -7.52 -999.99   -7.52    0.00000     0.00  LINEAR    2.69805E+00   154.99    0.00000E+00     0.00
  148.00   180.00      -7.84 -999.99   -7.84    0.00000     0.00  LINEAR    2.59907E+00   150.91    0.00000E+00     0.00
  150.00   180.00      -8.23 -999.99   -8.23    0.00000     0.00  LINEAR    2.48750E+00   147.08    0.00000E+00     0.00
  152.00   180.00      -8.68 -999.99   -8.68    0.00000     0.00  LINEAR    2.36188E+00   143.46    0.00000E+00     0.00
  154.00   180.00      -9.21 -999.99   -9.21    0.00000     0.00  LINEAR    2.22167E+00   140.04    0.00000E+00     0.00
  156.00   180.00      -9.83 -999.99   -9.83    0.00000     0.00  LINEAR    2.06719E+00   136.77    0.00000E+00     0.00
  158.00   180.00     -10.57 -999.99  -10.57    0.00000     0.00  LINEAR    1.89956E+00   133.62    0.00000E+00     0.00
  160.00   180.00     -11.43 -999.99  -11.43    0.00000     0.00  LINEAR    1.72060E+00   130.55    0.00000E+00     0.00
  162.00   180.00     -12.43 -999.99  -12.43    0.00000     0.00  LINEAR    1.53274E+00   127.51    0.00000E+00     0.00
  164.00   180.00     -13.61 -999.99  -13.61    0.00000     0.00  LINEAR    1.33894E+00   124.46    0.00000E+00     0.00
  166.00   180.00     -14.98 -999.99  -14.98    0.00000     0.00  LINEAR    1.14253E+00   121.34    0.00000E+00     0.00
  168.00   180.00     -16.61 -999.99  -16.61    0.00000     0.00  LINEAR    9.47142E-01   118.11    0.00000E+00     0.00
  170.00   180.00     -18.56 -999.99  -18.56    0.00000     0.00  LINEAR    7.56575E-01   114.67    0.00000E+00     0.00
  172.00   180.00     -20.95 -999.99  -20.95    0.00000     0.00  LINEAR    5.74639E-01   110.94    0.00000E+00     0.00
  174.00   180.00     -23.99 -999.99  -23.99    0.00000     0.00  LINEAR    4.05015E-01   106.80    0.00000E+00     0.00
  176.00   180.00     -28.15 -999.99  -28.15    0.00000     0.00  LINEAR    2.51046E-01   102.06    0.00000E+00     0.00
  178.00   180.00     -34.89 -999.99  -34.89    0.00000     0.00  LINEAR    1.15467E-01    96.51    0.00000E+00     0.00
  180.00   180.00    -999.99 -999.99 -999.99    0.00000     0.00  LINEAR    3.07626E-11   -90.16    0.00000E+00     0.00
  182.00   180.00     -36.56 -999.99  -36.56    0.00000     0.00  LINEAR    9.52797E-02   -98.35    0.00000E+00     0.00
  184.00   180.00     -31.38 -999.99  -31.38    0.00000     0.00  LINEAR    1.72929E-01  -108.51    0.00000E+00     0.00
  186.00   180.00     -28.56 -999.99  -28.56    0.00000     0.00  LINEAR    2.39442E-01  -120.93    0.00000E+00     0.00
  188.00   180.00     -26.42 -999.99  -26.42    0.00000     0.00  LINEAR    3.06183E-01  -135.35    0.00000E+00     0.00
  190.00   180.00     -24.36 -999.99  -24.36    0.00000     0.00  LINEAR    3.88216E-01  -150.62    0.00000E+00     0.00
  192.00   180.00     -22.16 -999.99  -22.16    0.00000     0.00  LINEAR    5.00083E-01  -165.07    0.00000E+00     0.00
  194.00   180.00     -19.86 -999.99  -19.86    0.00000     0.00  LINEAR    6.51552E-01  -177.48    0.00000E+00     0.00
  196.00   180.00     -17.58 -999.99  -17.58    0.00000     0.00  LINEAR    8.46931E-01   172.44    0.00000E+00     0.00
  198.00   180.00     -15.42 -999.99  -15.42    0.00000     0.00  LINEAR    1.08691E+00   164.41    0.00000E+00     0.00
  200.00   180.00     -13.40 -999.99  -13.40    0.00000     0.00  LINEAR    1.37035E+00   158.01    0.00000E+00     0.00
  202.00   180.00     -11.56 -999.99  -11.56    0.00000     0.00  LINEAR    1.69520E+00   152.82    0.00000E+00     0.00
  204.00   180.00      -9.87 -999.99   -9.87    0.00000     0.00  LINEAR    2.05893E+00   148.55    0.00000E+00     0.00
  206.00   180.00      -8.33 -999.99   -8.33    0.00000     0.00  LINEAR    2.45857E+00   144.96    0.00000E+00     0.00
  208.00   180.00      -6.92 -999.99   -6.92    0.00000     0.00  LINEAR    2.89086E+00   141.90    0.00000E+00     0.00
  210.00   180.00      -5.63 -999.99   -5.63    0.00000     0.00  LINEAR    3.35226E+00   139.24    0.00000E+00     0.00
  212.00   180.00      -4.46 -999.99   -4.46    0.00000     0.00  LINEAR    3.83896E+00   136.90    0.00000E+00     0.00
  214.00   180.00      -3.38 -999.99   -3.38    0.00000     0.00  LINEAR    4.34699E+00   134.82    0.00000E+00     0.00
  216.00   180.00      -2.39 -999.99   -2.39    0.00000     0.00  LINEAR    4.87222E+00   132.95    0.00000E+00     0.00
  218.00   180.00      -1.48 -999.99   -1.48    0.00000     0.00  LINEAR    5.41048E+00   131.25    0.00000E+00     0.00
  220.00   180.00      -0.64 -999.99   -0.64    0.00000     0.00  LINEAR    5.95755E+00   129.70    0.00000E+00     0.00
  222.00   180.00       0.13 -999.99    0.13    0.00000     0.00  LINEAR    6.50927E+00   128.28    0.00000E+00     0.00
  224.00   180.00       0.84 -999.99    0.84    0.00000     0.00  LINEAR    7.06160E+00   126.96    0.00000E+00     0.00
  226.00   180.00       1.49 -999.99    1.49    0.00000     0.00  LINEAR    7.61063E+00   125.73    0.00000E+00     0.00
  228.00   180.00       2.09 -999.99    2.09    0.00000     0.00  LINEAR    8.15265E+00   124.59    0.00000E+00     0.00
  230.00   180.00       2.63 -999.99    2.63    0.00000     0.00  LINEAR    8.68420E+00   123.52    0.00000E+00     0.00
  232.00   180.00       3.14 -999.99    3.14    0.00000     0.00  LINEAR    9.20211E+00   122.53    0.00000E+00     0.00
  234.00   180.00       3.60 -999.99    3.60    0.00000     0.00  LINEAR    9.70348E+00   121.59    0.00000E+00     0.00
  236.00   180.00       4.02 -999.99    4.02    0.00000     0.00  LINEAR    1.01857E+01   120.71    0.00000E+00     0.00
  238.00   180.00       4.40 -999.99    4.40    0.00000     0.00  LINEAR    1.06466E+01   119.89    0.00000E+00     0.00
  240.00   180.00       4.75 -999.99    4.75    0.00000     0.00  LINEAR    1.10842E+01   119.13    0.00000E+00     0.00
  242.00   180.00       5.07 -999.99    5.07    0.00000     0.00  LINEAR    1.14969E+01   118.41    0.00000E+00     0.00
  244.00   180.00       5.36 -999.99    5.36    0.00000     0.00  LINEAR    1.18834E+01   117.74    0.00000E+00     0.00
  246.00   180.00       5.62 -999.99    5.62    0.00000     0.00  LINEAR    1.22426E+01   117.13    0.00000E+00     0.00
  248.00   180.00       5.85 -999.99    5.85    0.00000     0.00  LINEAR    1.25738E+01   116.56    0.00000E+00     0.00
  250.00   180.00       6.05 -999.99    6.05    0.00000     0.00  LINEAR    1.28764E+01   116.04    0.00000E+00     0.00
  252.00   180.00       6.24 -999.99    6.24    0.00000     0.00  LINEAR    1.31501E+01   115.56    0.00000E+00     0.00
  254.00   180.00       6.40 -999.99    6.40    0.00000     0.00  LINEAR    1.33947E+01   115.14    0.00000E+00     0.00
  256.00   180.00       6.54 -999.99    6.54    0.00000     0.00  LINEAR    1.36101E+01   114.76    0.00000E+00     0.00
  258.00   180.00       6.65 -999.99    6.65    0.00000     0.00  LINEAR    1.37964E+01   114.44    0.00000E+00     0.00
  260.00   180.00       6.75 -999.99    6.75    0.00000     0.00  LINEAR    1.39536E+01   114.16    0.00000E+00     0.00
  262.00   180.00       6.83 -999.99    6.83    0.00000     0.00  LINEAR    1.40819E+01   113.93    0.00000E+00     0.00
  264.00   180.00       6.89 -999.99    6.89    0.00000     0.00  LINEAR    1.41816E+01   113.76    0.00000E+00     0.00
  266.00   180.00       6.94 -999.99    6.94    0.00000     0.00  LINEAR    1.42526E+01   113.63    0.00000E+00     0.00
  268.00   180.00       6.96 -999.99    6.96    0.00000     0.00  LINEAR    1.42952E+01   113.55    0.00000E+00     0.00
  270.00   180.00       6.97 -999.99    6.97    0.00000     0.00  LINEAR    1.43094E+01   113.53    0.00000E+00     0.00
  272.00   180.00       6.96 -999.99    6.96    0.00000     0.00  LINEAR    1.42952E+01   113.55    0.00000E+00     0.00
  274.00   180.00       6.94 -999.99    6.94    0.00000     0.00  LINEAR    1.42526E+01   113.63    0.00000E+00     0.00
  276.00   180.00       6.89 -999.99    6.89    0.00000     0.00  LINEAR    1.41816E+01   113.76    0.00000E+00     0.00
  278.00   180.00       6.83 -999.99    6.83    0.00000     0.00  LINEAR    1.40819E+01   113.93    0.00000E+00     0.00
  280.00   180.00       6.75 -999.99    6.75    0.00000     0.00  LINEAR    1.39536E+01   114.16    0.00000E+00     0.00
  282.00   180.00       6.65 -999.99    6.65    0.00000     0.00  LINEAR    1.37964E+01   114.44    0.00000E+00     0.00
  284.00   180.00       6.54 -999.99    6.54    0.00000     0.00  LINEAR    1.36101E+01   114.76    0.00000E+00     0.00
  286.00   180.00       6.40 -999.99    6.40    0.00000     0.00  LINEAR    1.33947E+01   115.14    0.00000E+00     0.00
  288.00   180.00       6.24 -999.99    6.24    0.00000     0.00  LINEAR    1.31501E+01   115.56    0.00000E+00     0.00
  290.00   180.00       6.05 -999.99    6.05    0.00000     0.00  LINEAR    1.28764E+01   116.04    0.00000E+00     0.00
  292.00   180.00       5.85 -999.99    5.85    0.00000     0.00  LINEAR    1.25738E+01   116.56    0.00000E+00     0.00
  294.00   180.00       5.62 -999.99    5.62    0.00000     0.00  LINEAR    1.22426E+01   117.13    0.00000E+00     0.00
  296.00   180.00       5.36 -999.99    5.36    0.00000     0.00  LINEAR    1.18834E+01   117.74    0.00000E+00     0.00
  298.00   180.00       5.07 -999.99    5.07    0.00000     0.00  LINEAR    1.14969E+01   118.41    0.00000E+00     0.00
  300.00   180.00       4.75 -999.99    4.75    0.00000     0.00  LINEAR    1.10842E+01   119.13    0.00000E+00     0.00
  302.00   180.00       4.40 -999.99    4.40    0.00000     0.00  LINEAR    1.06466E+01   119.89    0.00000E+00     0.00
  304.00   180.00       4.02 -999.99    4.02    0.00000     0.00  LINEAR    1.01857E+01   120.71    0.00000E+00     0.00
  306.00   180.00       3.60 -999.99    3.60    0.00000     0.00  LINEAR    9.70348E+00   121.59    0.00000E+00     0.00
  308.00   180.00       3.14 -999.99    3.14    0.00000     0.00  LINEAR    9.20211E+00   122.53    0.00000E+00     0.00
  310.00   180.00       2.63 -999.99    2.63    0.00000     0.00  LINEAR    8.68420E+00   123.52    0.00000E+00     0.00
  312.00   180.00       2.09 -999.99    2.09    0.00000     0.00  LINEAR    8.15265E+00   124.59    0.00000E+00     0.00
  314.00   180.00       1.49 -999.99    1.49    0.00000     0.00  LINEAR    7.61063E+00   125.73    0.00000E+00     0.00
  316.00   180.00       0.84 -999.99    0.84    0.00000     0.00  LINEAR    7.06160E+00   126.96    0.00000E+00     0.00
  318.00   180.00       0.13 -999.99    0.13    0.00000     0.00  LINEAR    6.50927E+00   128.28    0.00000E+00     0.00
  320.00   180.00      -0.64 -999.99   -0.64    0.00000     0.00  LINEAR    5.95755E+00   129.70    0.00000E+00     0.00
  322.00   180.00      -1.48 -999.99   -1.48    0.00000     0.00  LINEAR    5.41048E+00   131.25    0.00000E+00     0.00
  324.00   180.00      -2.39 -999.99   -2.39    0.00000     0.00  LINEAR    4.87222E+00   132.95    0.00000E+00     0.00
  326.00   180.00      -3.38 -999.99   -3.38    0.00000     0.00  LINEAR    4.34699E+00   134.82    0.00000E+00     0.00
  328.00   180.00      -4.46 -999.99   -4.46    0.00000     0.00  LINEAR    3.83896E+00   136.90    0.00000E+00     0.00
  330.00   180.00      -5.63 -999.99   -5.63    0.00000     0.00  LINEAR    3.35226E+00   139.24    0.00000E+00     0.00
  332.00   180.00      -6.92 -999.99   -6.92    0.00000     0.00  LINEAR    2.89086E+00   141.90    0.00000E+00     0.00
  334.00   180.00      -8.33 -999.99   -8.33    0.00000     0.00  LINEAR    2.45857E+00   144.96    0.00000E+00     0.00
  336.00   180.00      -9.87 -999.99   -9.87    0.00000     0.00  LINEAR    2.05893E+00   148.55    0.00000E+00     0.00
  338.00   180.00     -11.56 -999.99  -11.56    0.00000     0.00  LINEAR    1.69520E+00   152.82    0.00000E+00     0.00
  340.00   180.00     -13.40 -999.99  -13.40    0.00000     0.00  LINEAR    1.37035E+00   158.01    0.00000E+00     0.00
  342.00   180.00     -15.42 -999.99  -15.42    0.00000     0.00  LINEAR    1.08691E+00   164.41    0.00000E+00     0.00
  344.00   180.00     -17.58 -999.99  -17.58    0.00000     0.00  LINEAR    8.46931E-01   172.44    0.00000E+00     0.00
  346.00   180.00     -19.86 -999.99  -19.86    0.00000     0.00  LINEAR    6.51552E-01  -177.48    0.00000E+00     0.00
  348.00   180.00     -22.16 -999.99  -22.16    0.00000     0.00  LINEAR    5.00083E-01  -165.07    0.00000E+00     0.00
  350.00   180.00     -24.36 -999.99  -24.36    0.00000     0.00  LINEAR    3.88216E-01  -150.62    0.00000E+00     0.00
  352.00   180.00     -26.42 -999.99  -26.42    0.00000     0.00  LINEAR    3.06183E-01  -135.35    0.00000E+00     0.00
  354.00   180.00     -28.56 -999.99  -28.56    0.00000     0.00  LINEAR    2.39442E-01  -120.93    0.00000E+00     0.00
  356.00   180.00     -31.38 -999.99  -31.38    0.00000     0.00  LINEAR    1.72929E-01  -108.51    0.00000E+00     0.00
  358.00   180.00     -36.56 -999.99  -36.56    0.00000     0.00  LINEAR    9.52797E-02   -98.35    0.00000E+00     0.00
  360.00   180.00    -999.99 -999.99 -999.99    0.00000     0.00  LINEAR    6.15252E-11    89.84    0.00000E+00     0.00






 ***** DATA CARD NO.  6   EN   0   181    91  1000  0.00000E+00  0.00000E+00  2.00000E+00  2.00000E+00  0.00000E+00  0.00000E+00

 RUN TIME =     0.297
