1



                                 *********************************************

                                    NUMERICAL ELECTROMAGNETICS CODE (NEC-2D)

                                 *********************************************




                                     - - - - COMMENTS - - - -


                          Homework #1                                                                
                          UDA-YAGI array of square loops                                             
                          3 ELEMENT DESIGN                                                           




                                 - - - STRUCTURE SPECIFICATION - - -

                                     COORDINATES MUST BE INPUT IN
                                     METERS OR BE SCALED TO METERS
                                     BEFORE STRUCTURE INPUT IS ENDED


  WIRE                                                                               NO. OF    FIRST  LAST     TAG
  NO.        X1         Y1         Z1          X2         Y2         Z2      RADIUS   SEG.     SEG.   SEG.     NO.
     1   -0.15000   -0.13100    0.13100    -0.15000    0.13100    0.13100    0.00500      5        1     5       1
     2   -0.15000   -0.13100   -0.13100    -0.15000    0.13100   -0.13100    0.00500      5        6    10       2
     3   -0.15000   -0.13100   -0.13100    -0.15000   -0.13100    0.13100    0.00500      5       11    15       3
     4   -0.15000    0.13100   -0.13100    -0.15000    0.13100    0.13100    0.00500      5       16    20       4
     5    0.00000   -0.12500    0.12500     0.00000    0.12500    0.12500    0.00500      5       21    25       5
     6    0.00000   -0.12500   -0.12500     0.00000    0.12500   -0.12500    0.00500      5       26    30       6
     7    0.00000   -0.12500   -0.12500     0.00000   -0.12500    0.12500    0.00500      5       31    35       7
     8    0.00000    0.12500   -0.12500     0.00000    0.12500    0.12500    0.00500      5       36    40       8
     9    0.15000   -0.11800    0.11800     0.15000    0.11800    0.11800    0.00500      5       41    45       9
    10    0.15000   -0.11800   -0.11800     0.15000    0.11800   -0.11800    0.00500      5       46    50      10
    11    0.15000   -0.11800   -0.11800     0.15000   -0.11800    0.11800    0.00500      5       51    55      11
    12    0.15000    0.11800   -0.11800     0.15000    0.11800    0.11800    0.00500      5       56    60      12

   TOTAL SEGMENTS USED=   60     NO. SEG. IN A SYMMETRIC CELL=   60     SYMMETRY FLAG=  0


         - MULTIPLE WIRE JUNCTIONS -
 JUNCTION    SEGMENTS  (- FOR END 1, + FOR END 2)
  NONE




                                 - - - - SEGMENTATION DATA - - - -

                                        COORDINATES IN METERS

                         I+ AND I- INDICATE THE SEGMENTS BEFORE AND AFTER I


  SEG.   COORDINATES OF SEG. CENTER     SEG.     ORIENTATION ANGLES    WIRE    CONNECTION DATA   TAG
  NO.       X         Y         Z       LENGTH     ALPHA     BETA      RADIUS    I-   I    I+    NO.
     1  -0.15000  -0.10480   0.13100   0.05240    0.00000  90.00000   0.00500    15    1    2      1
     2  -0.15000  -0.05240   0.13100   0.05240    0.00000  90.00000   0.00500     1    2    3      1
     3  -0.15000   0.00000   0.13100   0.05240    0.00000  90.00000   0.00500     2    3    4      1
     4  -0.15000   0.05240   0.13100   0.05240    0.00000  90.00000   0.00500     3    4    5      1
     5  -0.15000   0.10480   0.13100   0.05240    0.00000  90.00000   0.00500     4    5  -20      1
     6  -0.15000  -0.10480  -0.13100   0.05240    0.00000  90.00000   0.00500   -11    6    7      2
     7  -0.15000  -0.05240  -0.13100   0.05240    0.00000  90.00000   0.00500     6    7    8      2
     8  -0.15000   0.00000  -0.13100   0.05240    0.00000  90.00000   0.00500     7    8    9      2
     9  -0.15000   0.05240  -0.13100   0.05240    0.00000  90.00000   0.00500     8    9   10      2
    10  -0.15000   0.10480  -0.13100   0.05240    0.00000  90.00000   0.00500     9   10   16      2
    11  -0.15000  -0.13100  -0.10480   0.05240   90.00000   0.00000   0.00500    -6   11   12      3
    12  -0.15000  -0.13100  -0.05240   0.05240   90.00000   0.00000   0.00500    11   12   13      3
    13  -0.15000  -0.13100   0.00000   0.05240   90.00000   0.00000   0.00500    12   13   14      3
    14  -0.15000  -0.13100   0.05240   0.05240   90.00000   0.00000   0.00500    13   14   15      3
    15  -0.15000  -0.13100   0.10480   0.05240   90.00000   0.00000   0.00500    14   15    1      3
    16  -0.15000   0.13100  -0.10480   0.05240   90.00000   0.00000   0.00500    10   16   17      4
    17  -0.15000   0.13100  -0.05240   0.05240   90.00000   0.00000   0.00500    16   17   18      4
    18  -0.15000   0.13100   0.00000   0.05240   90.00000   0.00000   0.00500    17   18   19      4
    19  -0.15000   0.13100   0.05240   0.05240   90.00000   0.00000   0.00500    18   19   20      4
    20  -0.15000   0.13100   0.10480   0.05240   90.00000   0.00000   0.00500    19   20   -5      4
    21   0.00000  -0.10000   0.12500   0.05000    0.00000  90.00000   0.00500    35   21   22      5
    22   0.00000  -0.05000   0.12500   0.05000    0.00000  90.00000   0.00500    21   22   23      5
    23   0.00000   0.00000   0.12500   0.05000    0.00000  90.00000   0.00500    22   23   24      5
    24   0.00000   0.05000   0.12500   0.05000    0.00000  90.00000   0.00500    23   24   25      5
    25   0.00000   0.10000   0.12500   0.05000    0.00000  90.00000   0.00500    24   25  -40      5
    26   0.00000  -0.10000  -0.12500   0.05000    0.00000  90.00000   0.00500   -31   26   27      6
    27   0.00000  -0.05000  -0.12500   0.05000    0.00000  90.00000   0.00500    26   27   28      6
    28   0.00000   0.00000  -0.12500   0.05000    0.00000  90.00000   0.00500    27   28   29      6
    29   0.00000   0.05000  -0.12500   0.05000    0.00000  90.00000   0.00500    28   29   30      6
    30   0.00000   0.10000  -0.12500   0.05000    0.00000  90.00000   0.00500    29   30   36      6
    31   0.00000  -0.12500  -0.10000   0.05000   90.00000   0.00000   0.00500   -26   31   32      7
    32   0.00000  -0.12500  -0.05000   0.05000   90.00000   0.00000   0.00500    31   32   33      7
    33   0.00000  -0.12500   0.00000   0.05000   90.00000   0.00000   0.00500    32   33   34      7
    34   0.00000  -0.12500   0.05000   0.05000   90.00000   0.00000   0.00500    33   34   35      7
    35   0.00000  -0.12500   0.10000   0.05000   90.00000   0.00000   0.00500    34   35   21      7
    36   0.00000   0.12500  -0.10000   0.05000   90.00000   0.00000   0.00500    30   36   37      8
    37   0.00000   0.12500  -0.05000   0.05000   90.00000   0.00000   0.00500    36   37   38      8
    38   0.00000   0.12500   0.00000   0.05000   90.00000   0.00000   0.00500    37   38   39      8
    39   0.00000   0.12500   0.05000   0.05000   90.00000   0.00000   0.00500    38   39   40      8
    40   0.00000   0.12500   0.10000   0.05000   90.00000   0.00000   0.00500    39   40  -25      8
    41   0.15000  -0.09440   0.11800   0.04720    0.00000  90.00000   0.00500    55   41   42      9
    42   0.15000  -0.04720   0.11800   0.04720    0.00000  90.00000   0.00500    41   42   43      9
    43   0.15000   0.00000   0.11800   0.04720    0.00000  90.00000   0.00500    42   43   44      9
    44   0.15000   0.04720   0.11800   0.04720    0.00000  90.00000   0.00500    43   44   45      9
    45   0.15000   0.09440   0.11800   0.04720    0.00000  90.00000   0.00500    44   45  -60      9
    46   0.15000  -0.09440  -0.11800   0.04720    0.00000  90.00000   0.00500   -51   46   47     10
    47   0.15000  -0.04720  -0.11800   0.04720    0.00000  90.00000   0.00500    46   47   48     10
    48   0.15000   0.00000  -0.11800   0.04720    0.00000  90.00000   0.00500    47   48   49     10
    49   0.15000   0.04720  -0.11800   0.04720    0.00000  90.00000   0.00500    48   49   50     10
    50   0.15000   0.09440  -0.11800   0.04720    0.00000  90.00000   0.00500    49   50   56     10
    51   0.15000  -0.11800  -0.09440   0.04720   90.00000   0.00000   0.00500   -46   51   52     11
    52   0.15000  -0.11800  -0.04720   0.04720   90.00000   0.00000   0.00500    51   52   53     11
    53   0.15000  -0.11800   0.00000   0.04720   90.00000   0.00000   0.00500    52   53   54     11
    54   0.15000  -0.11800   0.04720   0.04720   90.00000   0.00000   0.00500    53   54   55     11
    55   0.15000  -0.11800   0.09440   0.04720   90.00000   0.00000   0.00500    54   55   41     11
    56   0.15000   0.11800  -0.09440   0.04720   90.00000   0.00000   0.00500    50   56   57     12
    57   0.15000   0.11800  -0.04720   0.04720   90.00000   0.00000   0.00500    56   57   58     12
    58   0.15000   0.11800   0.00000   0.04720   90.00000   0.00000   0.00500    57   58   59     12
    59   0.15000   0.11800   0.04720   0.04720   90.00000   0.00000   0.00500    58   59   60     12
    60   0.15000   0.11800   0.09440   0.04720   90.00000   0.00000   0.00500    59   60  -45     12






 ***** DATA CARD NO.  1   EX   0     5     3     0  1.00000E+00  0.00000E+00  0.00000E+00  0.00000E+00  0.00000E+00  0.00000E+00
 ***** DATA CARD NO.  2   FR   0   121     0     0  2.40000E+02  1.00000E+00  0.00000E+00  0.00000E+00  0.00000E+00  0.00000E+00
 ***** DATA CARD NO.  3   RP   0     1     1  1000  9.00000E+01  0.00000E+00  2.00000E+00  4.00000E+00  0.00000E+00  0.00000E+00




                                 - - - - - - FREQUENCY - - - - - -

                                    FREQUENCY= 2.4000E+02 MHZ
                                    WAVELENGTH= 1.2492E+00 METERS




                    APPROXIMATE INTEGRATION EMPLOYED FOR SEGMENTS MORE THAN   1.000 WAVELENGTHS APART



                               - - - STRUCTURE IMPEDANCE LOADING - - -

                                   THIS STRUCTURE IS NOT LOADED



                                  - - - ANTENNA ENVIRONMENT - - -

                                            FREE SPACE



                                - - - MATRIX TIMING - - -

                        FILL=    0.050 SEC.,  FACTOR=    0.000 SEC.



                                          - - - ANTENNA INPUT PARAMETERS - - -

   TAG   SEG.    VOLTAGE (VOLTS)         CURRENT (AMPS)         IMPEDANCE (OHMS)        ADMITTANCE (MHOS)      POWER
   NO.   NO.    REAL        IMAG.       REAL        IMAG.       REAL        IMAG.       REAL        IMAG.     (WATTS)
     5    23 1.00000E+00 0.00000E+00 2.88149E-04 2.47860E-03 4.62777E+01-3.98073E+02 2.88149E-04 2.47860E-03 1.44074E-04



                             - - - CURRENTS AND LOCATION - - -

                                 DISTANCES IN WAVELENGTHS


  SEG.  TAG    COORD. OF SEG. CENTER     SEG.            - - - CURRENT (AMPS) - - -
  NO.   NO.     X        Y        Z      LENGTH     REAL        IMAG.       MAG.        PHASE
     1    1  -0.1201  -0.0839   0.1049  0.04195   2.3431E-04 -3.7049E-04  4.3837E-04  -57.689
     2    1  -0.1201  -0.0419   0.1049  0.04195   2.7402E-04 -4.7684E-04  5.4997E-04  -60.116
     3    1  -0.1201   0.0000   0.1049  0.04195   2.8714E-04 -5.1696E-04  5.9135E-04  -60.951
     4    1  -0.1201   0.0419   0.1049  0.04195   2.7402E-04 -4.7684E-04  5.4997E-04  -60.116
     5    1  -0.1201   0.0839   0.1049  0.04195   2.3431E-04 -3.7049E-04  4.3837E-04  -57.689
     6    2  -0.1201  -0.0839  -0.1049  0.04195   1.7785E-04 -6.1958E-04  6.4460E-04  -73.984
     7    2  -0.1201  -0.0419  -0.1049  0.04195   2.1570E-04 -7.0451E-04  7.3679E-04  -72.977
     8    2  -0.1201   0.0000  -0.1049  0.04195   2.2815E-04 -7.3520E-04  7.6979E-04  -72.760
     9    2  -0.1201   0.0419  -0.1049  0.04195   2.1570E-04 -7.0451E-04  7.3679E-04  -72.977
    10    2  -0.1201   0.0839  -0.1049  0.04195   1.7785E-04 -6.1958E-04  6.4460E-04  -73.984
    11    3  -0.1201  -0.1049  -0.0839  0.04195  -1.1513E-04  4.9653E-04  5.0971E-04  103.054
    12    3  -0.1201  -0.1049  -0.0419  0.04195  -4.5736E-05  3.3461E-04  3.3772E-04   97.783
    13    3  -0.1201  -0.1049   0.0000  0.04195   2.6395E-05  1.4769E-04  1.5003E-04   79.867
    14    3  -0.1201  -0.1049   0.0419  0.04195   9.8822E-05 -4.6361E-05  1.0916E-04  -25.133
    15    3  -0.1201  -0.1049   0.0839  0.04195   1.6928E-04 -2.2657E-04  2.8283E-04  -53.234
    16    4  -0.1201   0.1049  -0.0839  0.04195   1.1513E-04 -4.9653E-04  5.0971E-04  -76.946
    17    4  -0.1201   0.1049  -0.0419  0.04195   4.5736E-05 -3.3461E-04  3.3772E-04  -82.217
    18    4  -0.1201   0.1049   0.0000  0.04195  -2.6395E-05 -1.4769E-04  1.5003E-04 -100.133
    19    4  -0.1201   0.1049   0.0419  0.04195  -9.8822E-05  4.6361E-05  1.0916E-04  154.867
    20    4  -0.1201   0.1049   0.0839  0.04195  -1.6928E-04  2.2657E-04  2.8283E-04  126.766
    21    5   0.0000  -0.0801   0.1001  0.04003   2.3512E-04  8.9289E-04  9.2332E-04   75.248
    22    5   0.0000  -0.0400   0.1001  0.04003   2.7510E-04  1.7043E-03  1.7264E-03   80.831
    23    5   0.0000   0.0000   0.1001  0.04003   2.8815E-04  2.4786E-03  2.4953E-03   83.369
    24    5   0.0000   0.0400   0.1001  0.04003   2.7510E-04  1.7043E-03  1.7264E-03   80.831
    25    5   0.0000   0.0801   0.1001  0.04003   2.3512E-04  8.9289E-04  9.2332E-04   75.248
    26    6   0.0000  -0.0801  -0.1001  0.04003   1.8131E-04  2.9090E-03  2.9146E-03   86.433
    27    6   0.0000  -0.0400  -0.1001  0.04003   2.1958E-04  3.1514E-03  3.1591E-03   86.014
    28    6   0.0000   0.0000  -0.1001  0.04003   2.3203E-04  3.2351E-03  3.2434E-03   85.898
    29    6   0.0000   0.0400  -0.1001  0.04003   2.1958E-04  3.1514E-03  3.1591E-03   86.014
    30    6   0.0000   0.0801  -0.1001  0.04003   1.8131E-04  2.9090E-03  2.9146E-03   86.433
    31    7   0.0000  -0.1001  -0.0801  0.04003  -1.1680E-04 -2.5263E-03  2.5290E-03  -92.647
    32    7   0.0000  -0.1001  -0.0400  0.04003  -4.6763E-05 -1.9975E-03  1.9980E-03  -91.341
    33    7   0.0000  -0.1001   0.0000  0.04003   2.5261E-05 -1.3456E-03  1.3459E-03  -88.925
    34    7   0.0000  -0.1001   0.0400  0.04003   9.7531E-05 -6.1247E-04  6.2019E-04  -80.952
    35    7   0.0000  -0.1001   0.0801  0.04003   1.6850E-04  1.4842E-04  2.2454E-04   41.376
    36    8   0.0000   0.1001  -0.0801  0.04003   1.1680E-04  2.5263E-03  2.5290E-03   87.353
    37    8   0.0000   0.1001  -0.0400  0.04003   4.6763E-05  1.9975E-03  1.9980E-03   88.659
    38    8   0.0000   0.1001   0.0000  0.04003  -2.5261E-05  1.3456E-03  1.3459E-03   91.075
    39    8   0.0000   0.1001   0.0400  0.04003  -9.7531E-05  6.1247E-04  6.2019E-04   99.048
    40    8   0.0000   0.1001   0.0801  0.04003  -1.6850E-04 -1.4842E-04  2.2454E-04 -138.624
    41    9   0.1201  -0.0756   0.0945  0.03779   1.7335E-04 -2.0355E-04  2.6736E-04  -49.582
    42    9   0.1201  -0.0378   0.0945  0.03779   2.0186E-04 -2.7722E-04  3.4293E-04  -53.939
    43    9   0.1201   0.0000   0.0945  0.03779   2.1118E-04 -3.0487E-04  3.7087E-04  -55.290
    44    9   0.1201   0.0378   0.0945  0.03779   2.0186E-04 -2.7722E-04  3.4293E-04  -53.939
    45    9   0.1201   0.0756   0.0945  0.03779   1.7335E-04 -2.0355E-04  2.6736E-04  -49.582
    46   10   0.1201  -0.0756  -0.0945  0.03779   1.2040E-04 -4.5311E-04  4.6884E-04  -75.119
    47   10   0.1201  -0.0378  -0.0945  0.03779   1.4753E-04 -5.0916E-04  5.3010E-04  -73.841
    48   10   0.1201   0.0000  -0.0945  0.03779   1.5635E-04 -5.2942E-04  5.5202E-04  -73.546
    49   10   0.1201   0.0378  -0.0945  0.03779   1.4753E-04 -5.0916E-04  5.3010E-04  -73.841
    50   10   0.1201   0.0756  -0.0945  0.03779   1.2040E-04 -4.5311E-04  4.6884E-04  -75.119
    51   11   0.1201  -0.0945  -0.0756  0.03779  -7.4634E-05  3.7234E-04  3.7975E-04  101.334
    52   11   0.1201  -0.0945  -0.0378  0.03779  -2.5326E-05  2.6690E-04  2.6810E-04   95.420
    53   11   0.1201  -0.0945   0.0000  0.03779   2.5145E-05  1.4516E-04  1.4732E-04   80.173
    54   11   0.1201  -0.0945   0.0378  0.03779   7.5818E-05  1.7433E-05  7.7797E-05   12.949
    55   11   0.1201  -0.0945   0.0756  0.03779   1.2588E-04 -1.0383E-04  1.6317E-04  -39.516
    56   12   0.1201   0.0945  -0.0756  0.03779   7.4634E-05 -3.7234E-04  3.7975E-04  -78.666
    57   12   0.1201   0.0945  -0.0378  0.03779   2.5326E-05 -2.6690E-04  2.6810E-04  -84.580
    58   12   0.1201   0.0945   0.0000  0.03779  -2.5145E-05 -1.4516E-04  1.4732E-04  -99.827
    59   12   0.1201   0.0945   0.0378  0.03779  -7.5818E-05 -1.7433E-05  7.7797E-05 -167.051
    60   12   0.1201   0.0945   0.0756  0.03779  -1.2588E-04  1.0383E-04  1.6317E-04  140.484



                                        - - - POWER BUDGET - - -

                                           INPUT POWER   = 1.4407E-04 WATTS
                                           RADIATED POWER= 1.4407E-04 WATTS
                                           STRUCTURE LOSS= 0.0000E+00 WATTS
                                           NETWORK LOSS  = 0.0000E+00 WATTS
                                           EFFICIENCY    = 100.00 PERCENT



                                                - - - RADIATION PATTERNS - - -

  - - ANGLES - -           - POWER GAINS -       - - - POLARIZATION - - -    - - - E(THETA) - - -    - - - E(PHI) - - -
  THETA     PHI        VERT.   HOR.    TOTAL      AXIAL     TILT   SENSE     MAGNITUDE    PHASE      MAGNITUDE    PHASE 
 DEGREES  DEGREES       DB      DB      DB        RATIO     DEG.              VOLTS/M    DEGREES      VOLTS/M    DEGREES
   90.00     0.00    -148.96    2.24    2.24    0.00000   -90.00  LINEAR    3.31384E-09   172.36    1.20299E-01   -13.12




                                 - - - - - - FREQUENCY - - - - - -

                                    FREQUENCY= 2.4100E+02 MHZ
                                    WAVELENGTH= 1.2440E+00 METERS




                    APPROXIMATE INTEGRATION EMPLOYED FOR SEGMENTS MORE THAN   1.000 WAVELENGTHS APART



                               - - - STRUCTURE IMPEDANCE LOADING - - -

                                   THIS STRUCTURE IS NOT LOADED



                                  - - - ANTENNA ENVIRONMENT - - -

                                            FREE SPACE



                                - - - MATRIX TIMING - - -

                        FILL=    0.000 SEC.,  FACTOR=    0.000 SEC.



                                          - - - ANTENNA INPUT PARAMETERS - - -

   TAG   SEG.    VOLTAGE (VOLTS)         CURRENT (AMPS)         IMPEDANCE (OHMS)        ADMITTANCE (MHOS)      POWER
   NO.   NO.    REAL        IMAG.       REAL        IMAG.       REAL        IMAG.       REAL        IMAG.     (WATTS)
     5    23 1.00000E+00 0.00000E+00 2.94708E-04 2.52130E-03 4.57352E+01-3.91276E+02 2.94708E-04 2.52130E-03 1.47354E-04



                             - - - CURRENTS AND LOCATION - - -

                                 DISTANCES IN WAVELENGTHS


  SEG.  TAG    COORD. OF SEG. CENTER     SEG.            - - - CURRENT (AMPS) - - -
  NO.   NO.     X        Y        Z      LENGTH     REAL        IMAG.       MAG.        PHASE
     1    1  -0.1206  -0.0842   0.1053  0.04212   2.3858E-04 -3.8520E-04  4.5310E-04  -58.228
     2    1  -0.1206  -0.0421   0.1053  0.04212   2.7907E-04 -4.9424E-04  5.6758E-04  -60.549
     3    1  -0.1206   0.0000   0.1053  0.04212   2.9244E-04 -5.3531E-04  6.0999E-04  -61.352
     4    1  -0.1206   0.0421   0.1053  0.04212   2.7907E-04 -4.9424E-04  5.6758E-04  -60.549
     5    1  -0.1206   0.0842   0.1053  0.04212   2.3858E-04 -3.8520E-04  4.5310E-04  -58.228
     6    2  -0.1206  -0.0842  -0.1053  0.04212   1.8178E-04 -6.3342E-04  6.5898E-04  -73.987
     7    2  -0.1206  -0.0421  -0.1053  0.04212   2.2036E-04 -7.2092E-04  7.5384E-04  -73.003
     8    2  -0.1206   0.0000  -0.1053  0.04212   2.3306E-04 -7.5251E-04  7.8777E-04  -72.792
     9    2  -0.1206   0.0421  -0.1053  0.04212   2.2036E-04 -7.2092E-04  7.5384E-04  -73.003
    10    2  -0.1206   0.0842  -0.1053  0.04212   1.8178E-04 -6.3342E-04  6.5898E-04  -73.987
    11    3  -0.1206  -0.1053  -0.0842  0.04212  -1.1786E-04  5.0652E-04  5.2005E-04  103.099
    12    3  -0.1206  -0.1053  -0.0421  0.04212  -4.7092E-05  3.3973E-04  3.4298E-04   97.892
    13    3  -0.1206  -0.1053   0.0000  0.04212   2.6512E-05  1.4738E-04  1.4974E-04   79.802
    14    3  -0.1206  -0.1053   0.0421  0.04212   1.0042E-04 -5.2150E-05  1.1315E-04  -27.443
    15    3  -0.1206  -0.1053   0.0842  0.04212   1.7229E-04 -2.3733E-04  2.9327E-04  -54.021
    16    4  -0.1206   0.1053  -0.0842  0.04212   1.1786E-04 -5.0652E-04  5.2005E-04  -76.901
    17    4  -0.1206   0.1053  -0.0421  0.04212   4.7092E-05 -3.3973E-04  3.4298E-04  -82.108
    18    4  -0.1206   0.1053   0.0000  0.04212  -2.6512E-05 -1.4738E-04  1.4974E-04 -100.198
    19    4  -0.1206   0.1053   0.0421  0.04212  -1.0042E-04  5.2150E-05  1.1315E-04  152.557
    20    4  -0.1206   0.1053   0.0842  0.04212  -1.7229E-04  2.3733E-04  2.9327E-04  125.979
    21    5   0.0000  -0.0804   0.1005  0.04019   2.4039E-04  9.2397E-04  9.5473E-04   75.417
    22    5   0.0000  -0.0402   0.1005  0.04019   2.8133E-04  1.7424E-03  1.7650E-03   80.828
    23    5   0.0000   0.0000   0.1005  0.04019   2.9471E-04  2.5213E-03  2.5385E-03   83.333
    24    5   0.0000   0.0402   0.1005  0.04019   2.8133E-04  1.7424E-03  1.7650E-03   80.828
    25    5   0.0000   0.0804   0.1005  0.04019   2.4039E-04  9.2397E-04  9.5472E-04   75.417
    26    6   0.0000  -0.0804  -0.1005  0.04019   1.8622E-04  2.9304E-03  2.9364E-03   86.364
    27    6   0.0000  -0.0402  -0.1005  0.04019   2.2542E-04  3.1769E-03  3.1849E-03   85.941
    28    6   0.0000   0.0000  -0.1005  0.04019   2.3817E-04  3.2620E-03  3.2706E-03   85.824
    29    6   0.0000   0.0402  -0.1005  0.04019   2.2542E-04  3.1769E-03  3.1849E-03   85.941
    30    6   0.0000   0.0804  -0.1005  0.04019   1.8622E-04  2.9304E-03  2.9364E-03   86.364
    31    7   0.0000  -0.1005  -0.0804  0.04019  -1.2020E-04 -2.5417E-03  2.5445E-03  -92.708
    32    7   0.0000  -0.1005  -0.0402  0.04019  -4.8445E-05 -2.0045E-03  2.0051E-03  -91.384
    33    7   0.0000  -0.1005   0.0000  0.04019   2.5391E-05 -1.3429E-03  1.3432E-03  -88.917
    34    7   0.0000  -0.1005   0.0402  0.04019   9.9482E-05 -5.9950E-04  6.0770E-04  -80.578
    35    7   0.0000  -0.1005   0.0804  0.04019   1.7219E-04  1.7114E-04  2.4278E-04   44.825
    36    8   0.0000   0.1005  -0.0804  0.04019   1.2020E-04  2.5417E-03  2.5445E-03   87.292
    37    8   0.0000   0.1005  -0.0402  0.04019   4.8445E-05  2.0045E-03  2.0051E-03   88.616
    38    8   0.0000   0.1005   0.0000  0.04019  -2.5391E-05  1.3429E-03  1.3432E-03   91.083
    39    8   0.0000   0.1005   0.0402  0.04019  -9.9482E-05  5.9950E-04  6.0770E-04   99.422
    40    8   0.0000   0.1005   0.0804  0.04019  -1.7219E-04 -1.7114E-04  2.4278E-04 -135.175
    41    9   0.1206  -0.0759   0.0949  0.03794   1.7649E-04 -2.1125E-04  2.7527E-04  -50.121
    42    9   0.1206  -0.0379   0.0949  0.03794   2.0559E-04 -2.8632E-04  3.5249E-04  -54.321
    43    9   0.1206   0.0000   0.0949  0.03794   2.1510E-04 -3.1448E-04  3.8100E-04  -55.629
    44    9   0.1206   0.0379   0.0949  0.03794   2.0559E-04 -2.8632E-04  3.5249E-04  -54.321
    45    9   0.1206   0.0759   0.0949  0.03794   1.7649E-04 -2.1125E-04  2.7527E-04  -50.121
    46   10   0.1206  -0.0759  -0.0949  0.03794   1.2322E-04 -4.5996E-04  4.7618E-04  -75.003
    47   10   0.1206  -0.0379  -0.0949  0.03794   1.5089E-04 -5.1732E-04  5.3887E-04  -73.739
    48   10   0.1206   0.0000  -0.0949  0.03794   1.5990E-04 -5.3804E-04  5.6130E-04  -73.449
    49   10   0.1206   0.0379  -0.0949  0.03794   1.5089E-04 -5.1732E-04  5.3887E-04  -73.739
    50   10   0.1206   0.0759  -0.0949  0.03794   1.2322E-04 -4.5996E-04  4.7618E-04  -75.003
    51   11   0.1206  -0.0949  -0.0759  0.03794  -7.6555E-05  3.7723E-04  3.8492E-04  101.472
    52   11   0.1206  -0.0949  -0.0379  0.03794  -2.6247E-05  2.6933E-04  2.7061E-04   95.566
    53   11   0.1206  -0.0949   0.0000  0.03794   2.5269E-05  1.4484E-04  1.4703E-04   80.104
    54   11   0.1206  -0.0949   0.0379  0.03794   7.6995E-05  1.4332E-05  7.8318E-05   10.544
    55   11   0.1206  -0.0949   0.0759  0.03794   1.2808E-04 -1.0947E-04  1.6849E-04  -40.522
    56   12   0.1206   0.0949  -0.0759  0.03794   7.6555E-05 -3.7723E-04  3.8492E-04  -78.528
    57   12   0.1206   0.0949  -0.0379  0.03794   2.6247E-05 -2.6933E-04  2.7061E-04  -84.434
    58   12   0.1206   0.0949   0.0000  0.03794  -2.5269E-05 -1.4484E-04  1.4703E-04  -99.896
    59   12   0.1206   0.0949   0.0379  0.03794  -7.6995E-05 -1.4332E-05  7.8318E-05 -169.456
    60   12   0.1206   0.0949   0.0759  0.03794  -1.2808E-04  1.0947E-04  1.6849E-04  139.478



                                        - - - POWER BUDGET - - -

                                           INPUT POWER   = 1.4735E-04 WATTS
                                           RADIATED POWER= 1.4735E-04 WATTS
                                           STRUCTURE LOSS= 0.0000E+00 WATTS
                                           NETWORK LOSS  = 0.0000E+00 WATTS
                                           EFFICIENCY    = 100.00 PERCENT



                                                - - - RADIATION PATTERNS - - -

  - - ANGLES - -           - POWER GAINS -       - - - POLARIZATION - - -    - - - E(THETA) - - -    - - - E(PHI) - - -
  THETA     PHI        VERT.   HOR.    TOTAL      AXIAL     TILT   SENSE     MAGNITUDE    PHASE      MAGNITUDE    PHASE 
 DEGREES  DEGREES       DB      DB      DB        RATIO     DEG.              VOLTS/M    DEGREES      VOLTS/M    DEGREES
   90.00     0.00    -148.93    2.25    2.25    0.00000   -90.00  LINEAR    3.36038E-09   172.41    1.21826E-01   -13.14




                                 - - - - - - FREQUENCY - - - - - -

                                    FREQUENCY= 2.4200E+02 MHZ
                                    WAVELENGTH= 1.2388E+00 METERS




                    APPROXIMATE INTEGRATION EMPLOYED FOR SEGMENTS MORE THAN   1.000 WAVELENGTHS APART



                               - - - STRUCTURE IMPEDANCE LOADING - - -

                                   THIS STRUCTURE IS NOT LOADED



                                  - - - ANTENNA ENVIRONMENT - - -

                                            FREE SPACE



                                - - - MATRIX TIMING - - -

                        FILL=    0.060 SEC.,  FACTOR=    0.000 SEC.



                                          - - - ANTENNA INPUT PARAMETERS - - -

   TAG   SEG.    VOLTAGE (VOLTS)         CURRENT (AMPS)         IMPEDANCE (OHMS)        ADMITTANCE (MHOS)      POWER
   NO.   NO.    REAL        IMAG.       REAL        IMAG.       REAL        IMAG.       REAL        IMAG.     (WATTS)
     5    23 1.00000E+00 0.00000E+00 3.01415E-04 2.56471E-03 4.51990E+01-3.84595E+02 3.01415E-04 2.56471E-03 1.50707E-04



                             - - - CURRENTS AND LOCATION - - -

                                 DISTANCES IN WAVELENGTHS


  SEG.  TAG    COORD. OF SEG. CENTER     SEG.            - - - CURRENT (AMPS) - - -
  NO.   NO.     X        Y        Z      LENGTH     REAL        IMAG.       MAG.        PHASE
     1    1  -0.1211  -0.0846   0.1057  0.04230   2.4287E-04 -4.0046E-04  4.6836E-04  -58.764
     2    1  -0.1211  -0.0423   0.1057  0.04230   2.8415E-04 -5.1228E-04  5.8581E-04  -60.984
     3    1  -0.1211   0.0000   0.1057  0.04230   2.9779E-04 -5.5435E-04  6.2927E-04  -61.756
     4    1  -0.1211   0.0423   0.1057  0.04230   2.8415E-04 -5.1228E-04  5.8581E-04  -60.984
     5    1  -0.1211   0.0846   0.1057  0.04230   2.4287E-04 -4.0046E-04  4.6836E-04  -58.764
     6    2  -0.1211  -0.0846  -0.1057  0.04230   1.8573E-04 -6.4781E-04  6.7391E-04  -74.002
     7    2  -0.1211  -0.0423  -0.1057  0.04230   2.2506E-04 -7.3797E-04  7.7153E-04  -73.040
     8    2  -0.1211   0.0000  -0.1057  0.04230   2.3800E-04 -7.7051E-04  8.0643E-04  -72.835
     9    2  -0.1211   0.0423  -0.1057  0.04230   2.2506E-04 -7.3797E-04  7.7153E-04  -73.040
    10    2  -0.1211   0.0846  -0.1057  0.04230   1.8573E-04 -6.4781E-04  6.7391E-04  -74.002
    11    3  -0.1211  -0.1057  -0.0846  0.04230  -1.2062E-04  5.1691E-04  5.3080E-04  103.134
    12    3  -0.1211  -0.1057  -0.0423  0.04230  -4.8460E-05  3.4507E-04  3.4846E-04   97.994
    13    3  -0.1211  -0.1057   0.0000  0.04230   2.6627E-05  1.4707E-04  1.4946E-04   79.738
    14    3  -0.1211  -0.1057   0.0423  0.04230   1.0203E-04 -5.8148E-05  1.1744E-04  -29.679
    15    3  -0.1211  -0.1057   0.0846  0.04230   1.7532E-04 -2.4848E-04  3.0411E-04  -54.794
    16    4  -0.1211   0.1057  -0.0846  0.04230   1.2062E-04 -5.1691E-04  5.3080E-04  -76.866
    17    4  -0.1211   0.1057  -0.0423  0.04230   4.8460E-05 -3.4507E-04  3.4846E-04  -82.006
    18    4  -0.1211   0.1057   0.0000  0.04230  -2.6627E-05 -1.4707E-04  1.4946E-04 -100.262
    19    4  -0.1211   0.1057   0.0423  0.04230  -1.0203E-04  5.8148E-05  1.1744E-04  150.321
    20    4  -0.1211   0.1057   0.0846  0.04230  -1.7532E-04  2.4848E-04  3.0411E-04  125.206
    21    5   0.0000  -0.0807   0.1009  0.04036   2.4578E-04  9.5562E-04  9.8672E-04   75.577
    22    5   0.0000  -0.0404   0.1009  0.04036   2.8771E-04  1.7812E-03  1.8043E-03   80.825
    23    5   0.0000   0.0000   0.1009  0.04036   3.0141E-04  2.5647E-03  2.5824E-03   83.297
    24    5   0.0000   0.0404   0.1009  0.04036   2.8771E-04  1.7812E-03  1.8043E-03   80.825
    25    5   0.0000   0.0807   0.1009  0.04036   2.4578E-04  9.5562E-04  9.8672E-04   75.577
    26    6   0.0000  -0.0807  -0.1009  0.04036   1.9125E-04  2.9526E-03  2.9588E-03   86.294
    27    6   0.0000  -0.0404  -0.1009  0.04036   2.3140E-04  3.2032E-03  3.2115E-03   85.868
    28    6   0.0000   0.0000  -0.1009  0.04036   2.4446E-04  3.2897E-03  3.2987E-03   85.750
    29    6   0.0000   0.0404  -0.1009  0.04036   2.3140E-04  3.2032E-03  3.2115E-03   85.868
    30    6   0.0000   0.0807  -0.1009  0.04036   1.9125E-04  2.9526E-03  2.9588E-03   86.294
    31    7   0.0000  -0.1009  -0.0807  0.04036  -1.2368E-04 -2.5575E-03  2.5605E-03  -92.769
    32    7   0.0000  -0.1009  -0.0404  0.04036  -5.0172E-05 -2.0119E-03  2.0125E-03  -91.429
    33    7   0.0000  -0.1009   0.0000  0.04036   2.5520E-05 -1.3403E-03  1.3405E-03  -88.909
    34    7   0.0000  -0.1009   0.0404  0.04036   1.0148E-04 -5.8634E-04  5.9506E-04  -80.181
    35    7   0.0000  -0.1009   0.0807  0.04036   1.7597E-04  1.9427E-04  2.6212E-04   47.829
    36    8   0.0000   0.1009  -0.0807  0.04036   1.2368E-04  2.5575E-03  2.5605E-03   87.231
    37    8   0.0000   0.1009  -0.0404  0.04036   5.0172E-05  2.0119E-03  2.0125E-03   88.571
    38    8   0.0000   0.1009   0.0000  0.04036  -2.5520E-05  1.3403E-03  1.3405E-03   91.091
    39    8   0.0000   0.1009   0.0404  0.04036  -1.0148E-04  5.8634E-04  5.9506E-04   99.819
    40    8   0.0000   0.1009   0.0807  0.04036  -1.7597E-04 -1.9427E-04  2.6212E-04 -132.171
    41    9   0.1211  -0.0762   0.0953  0.03810   1.7970E-04 -2.1914E-04  2.8340E-04  -50.648
    42    9   0.1211  -0.0381   0.0953  0.03810   2.0938E-04 -2.9566E-04  3.6229E-04  -54.696
    43    9   0.1211   0.0000   0.0953  0.03810   2.1908E-04 -3.2434E-04  3.9140E-04  -55.962
    44    9   0.1211   0.0381   0.0953  0.03810   2.0938E-04 -2.9566E-04  3.6229E-04  -54.696
    45    9   0.1211   0.0762   0.0953  0.03810   1.7970E-04 -2.1914E-04  2.8340E-04  -50.648
    46   10   0.1211  -0.0762  -0.0953  0.03810   1.2610E-04 -4.6701E-04  4.8373E-04  -74.889
    47   10   0.1211  -0.0381  -0.0953  0.03810   1.5432E-04 -5.2572E-04  5.4790E-04  -73.640
    48   10   0.1211   0.0000  -0.0953  0.03810   1.6351E-04 -5.4692E-04  5.7084E-04  -73.355
    49   10   0.1211   0.0381  -0.0953  0.03810   1.5432E-04 -5.2572E-04  5.4790E-04  -73.640
    50   10   0.1211   0.0762  -0.0953  0.03810   1.2610E-04 -4.6701E-04  4.8373E-04  -74.889
    51   11   0.1211  -0.0953  -0.0762  0.03810  -7.8516E-05  3.8227E-04  3.9025E-04  101.607
    52   11   0.1211  -0.0953  -0.0381  0.03810  -2.7190E-05  2.7184E-04  2.7319E-04   95.712
    53   11   0.1211  -0.0953   0.0000  0.03810   2.5393E-05  1.4452E-04  1.4674E-04   80.035
    54   11   0.1211  -0.0953   0.0381  0.03810   7.8192E-05  1.1157E-05  7.8984E-05    8.121
    55   11   0.1211  -0.0953   0.0762  0.03810   1.3032E-04 -1.1526E-04  1.7398E-04  -41.492
    56   12   0.1211   0.0953  -0.0762  0.03810   7.8516E-05 -3.8227E-04  3.9025E-04  -78.393
    57   12   0.1211   0.0953  -0.0381  0.03810   2.7190E-05 -2.7184E-04  2.7319E-04  -84.288
    58   12   0.1211   0.0953   0.0000  0.03810  -2.5393E-05 -1.4452E-04  1.4674E-04  -99.965
    59   12   0.1211   0.0953   0.0381  0.03810  -7.8192E-05 -1.1157E-05  7.8984E-05 -171.879
    60   12   0.1211   0.0953   0.0762  0.03810  -1.3032E-04  1.1526E-04  1.7398E-04  138.508



                                        - - - POWER BUDGET - - -

                                           INPUT POWER   = 1.5071E-04 WATTS
                                           RADIATED POWER= 1.5071E-04 WATTS
                                           STRUCTURE LOSS= 0.0000E+00 WATTS
                                           NETWORK LOSS  = 0.0000E+00 WATTS
                                           EFFICIENCY    = 100.00 PERCENT



                                                - - - RADIATION PATTERNS - - -

  - - ANGLES - -           - POWER GAINS -       - - - POLARIZATION - - -    - - - E(THETA) - - -    - - - E(PHI) - - -
  THETA     PHI        VERT.   HOR.    TOTAL      AXIAL     TILT   SENSE     MAGNITUDE    PHASE      MAGNITUDE    PHASE 
 DEGREES  DEGREES       DB      DB      DB        RATIO     DEG.              VOLTS/M    DEGREES      VOLTS/M    DEGREES
   90.00     0.00    -148.91    2.26    2.26    0.00000   -90.00  LINEAR    3.40771E-09   172.47    1.23372E-01   -13.17




                                 - - - - - - FREQUENCY - - - - - -

                                    FREQUENCY= 2.4300E+02 MHZ
                                    WAVELENGTH= 1.2337E+00 METERS




                    APPROXIMATE INTEGRATION EMPLOYED FOR SEGMENTS MORE THAN   1.000 WAVELENGTHS APART



                               - - - STRUCTURE IMPEDANCE LOADING - - -

                                   THIS STRUCTURE IS NOT LOADED



                                  - - - ANTENNA ENVIRONMENT - - -

                                            FREE SPACE



                                - - - MATRIX TIMING - - -

                        FILL=    0.050 SEC.,  FACTOR=    0.000 SEC.



                                          - - - ANTENNA INPUT PARAMETERS - - -

   TAG   SEG.    VOLTAGE (VOLTS)         CURRENT (AMPS)         IMPEDANCE (OHMS)        ADMITTANCE (MHOS)      POWER
   NO.   NO.    REAL        IMAG.       REAL        IMAG.       REAL        IMAG.       REAL        IMAG.     (WATTS)
     5    23 1.00000E+00 0.00000E+00 3.08274E-04 2.60889E-03 4.46687E+01-3.78026E+02 3.08274E-04 2.60889E-03 1.54137E-04



                             - - - CURRENTS AND LOCATION - - -

                                 DISTANCES IN WAVELENGTHS


  SEG.  TAG    COORD. OF SEG. CENTER     SEG.            - - - CURRENT (AMPS) - - -
  NO.   NO.     X        Y        Z      LENGTH     REAL        IMAG.       MAG.        PHASE
     1    1  -0.1216  -0.0849   0.1062  0.04247   2.4719E-04 -4.1630E-04  4.8416E-04  -59.299
     2    1  -0.1216  -0.0425   0.1062  0.04247   2.8926E-04 -5.3100E-04  6.0468E-04  -61.421
     3    1  -0.1216   0.0000   0.1062  0.04247   3.0316E-04 -5.7411E-04  6.4923E-04  -62.164
     4    1  -0.1216   0.0425   0.1062  0.04247   2.8926E-04 -5.3100E-04  6.0468E-04  -61.421
     5    1  -0.1216   0.0849   0.1062  0.04247   2.4719E-04 -4.1630E-04  4.8416E-04  -59.299
     6    2  -0.1216  -0.0849  -0.1062  0.04247   1.8971E-04 -6.6279E-04  6.8941E-04  -74.027
     7    2  -0.1216  -0.0425  -0.1062  0.04247   2.2978E-04 -7.5572E-04  7.8988E-04  -73.088
     8    2  -0.1216   0.0000  -0.1062  0.04247   2.4297E-04 -7.8923E-04  8.2578E-04  -72.889
     9    2  -0.1216   0.0425  -0.1062  0.04247   2.2978E-04 -7.5572E-04  7.8988E-04  -73.088
    10    2  -0.1216   0.0849  -0.1062  0.04247   1.8971E-04 -6.6279E-04  6.8941E-04  -74.027
    11    3  -0.1216  -0.1062  -0.0849  0.04247  -1.2339E-04  5.2773E-04  5.4196E-04  103.160
    12    3  -0.1216  -0.1062  -0.0425  0.04247  -4.9838E-05  3.5063E-04  3.5416E-04   98.090
    13    3  -0.1216  -0.1062   0.0000  0.04247   2.6740E-05  1.4676E-04  1.4918E-04   79.674
    14    3  -0.1216  -0.1062   0.0425  0.04247   1.0365E-04 -6.4364E-05  1.2201E-04  -31.840
    15    3  -0.1216  -0.1062   0.0849  0.04247   1.7837E-04 -2.6005E-04  3.1535E-04  -55.554
    16    4  -0.1216   0.1062  -0.0849  0.04247   1.2339E-04 -5.2773E-04  5.4196E-04  -76.840
    17    4  -0.1216   0.1062  -0.0425  0.04247   4.9838E-05 -3.5063E-04  3.5416E-04  -81.910
    18    4  -0.1216   0.1062   0.0000  0.04247  -2.6740E-05 -1.4676E-04  1.4918E-04 -100.326
    19    4  -0.1216   0.1062   0.0425  0.04247  -1.0365E-04  6.4364E-05  1.2201E-04  148.160
    20    4  -0.1216   0.1062   0.0849  0.04247  -1.7837E-04  2.6005E-04  3.1535E-04  124.446
    21    5   0.0000  -0.0811   0.1013  0.04053   2.5129E-04  9.8787E-04  1.0193E-03   75.728
    22    5   0.0000  -0.0405   0.1013  0.04053   2.9423E-04  1.8208E-03  1.8444E-03   80.820
    23    5   0.0000   0.0000   0.1013  0.04053   3.0827E-04  2.6089E-03  2.6270E-03   83.261
    24    5   0.0000   0.0405   0.1013  0.04053   2.9423E-04  1.8208E-03  1.8444E-03   80.820
    25    5   0.0000   0.0811   0.1013  0.04053   2.5129E-04  9.8787E-04  1.0193E-03   75.728
    26    6   0.0000  -0.0811  -0.1013  0.04053   1.9641E-04  2.9753E-03  2.9818E-03   86.223
    27    6   0.0000  -0.0405  -0.1013  0.04053   2.3751E-04  3.2302E-03  3.2389E-03   85.795
    28    6   0.0000   0.0000  -0.1013  0.04053   2.5090E-04  3.3182E-03  3.3276E-03   85.676
    29    6   0.0000   0.0405  -0.1013  0.04053   2.3751E-04  3.2302E-03  3.2389E-03   85.795
    30    6   0.0000   0.0811  -0.1013  0.04053   1.9641E-04  2.9753E-03  2.9818E-03   86.223
    31    7   0.0000  -0.1013  -0.0811  0.04053  -1.2725E-04 -2.5738E-03  2.5769E-03  -92.830
    32    7   0.0000  -0.1013  -0.0405  0.04053  -5.1945E-05 -2.0195E-03  2.0201E-03  -91.473
    33    7   0.0000  -0.1013   0.0000  0.04053   2.5648E-05 -1.3377E-03  1.3379E-03  -88.902
    34    7   0.0000  -0.1013   0.0405  0.04053   1.0352E-04 -5.7298E-04  5.8225E-04  -79.759
    35    7   0.0000  -0.1013   0.0811  0.04053   1.7984E-04  2.1782E-04  2.8247E-04   50.456
    36    8   0.0000   0.1013  -0.0811  0.04053   1.2725E-04  2.5738E-03  2.5769E-03   87.170
    37    8   0.0000   0.1013  -0.0405  0.04053   5.1945E-05  2.0195E-03  2.0201E-03   88.527
    38    8   0.0000   0.1013   0.0000  0.04053  -2.5648E-05  1.3377E-03  1.3379E-03   91.098
    39    8   0.0000   0.1013   0.0405  0.04053  -1.0352E-04  5.7298E-04  5.8225E-04  100.241
    40    8   0.0000   0.1013   0.0811  0.04053  -1.7984E-04 -2.1782E-04  2.8247E-04 -129.544
    41    9   0.1216  -0.0765   0.0956  0.03826   1.8296E-04 -2.2724E-04  2.9174E-04  -51.160
    42    9   0.1216  -0.0383   0.0956  0.03826   2.1324E-04 -3.0524E-04  3.7235E-04  -55.063
    43    9   0.1216   0.0000   0.0956  0.03826   2.2314E-04 -3.3445E-04  4.0206E-04  -56.290
    44    9   0.1216   0.0383   0.0956  0.03826   2.1324E-04 -3.0524E-04  3.7235E-04  -55.063
    45    9   0.1216   0.0765   0.0956  0.03826   1.8296E-04 -2.2724E-04  2.9174E-04  -51.160
    46   10   0.1216  -0.0765  -0.0956  0.03826   1.2904E-04 -4.7427E-04  4.9151E-04  -74.780
    47   10   0.1216  -0.0383  -0.0956  0.03826   1.5782E-04 -5.3436E-04  5.5718E-04  -73.546
    48   10   0.1216   0.0000  -0.0956  0.03826   1.6720E-04 -5.5606E-04  5.8065E-04  -73.265
    49   10   0.1216   0.0383  -0.0956  0.03826   1.5782E-04 -5.3436E-04  5.5718E-04  -73.546
    50   10   0.1216   0.0765  -0.0956  0.03826   1.2904E-04 -4.7427E-04  4.9151E-04  -74.780
    51   11   0.1216  -0.0956  -0.0765  0.03826  -8.0518E-05  3.8746E-04  3.9574E-04  101.740
    52   11   0.1216  -0.0956  -0.0383  0.03826  -2.8154E-05  2.7443E-04  2.7587E-04   95.858
    53   11   0.1216  -0.0956   0.0000  0.03826   2.5515E-05  1.4421E-04  1.4645E-04   79.966
    54   11   0.1216  -0.0956   0.0383  0.03826   7.9409E-05  7.9059E-06  7.9802E-05    5.686
    55   11   0.1216  -0.0956   0.0765  0.03826   1.3260E-04 -1.2120E-04  1.7965E-04  -42.429
    56   12   0.1216   0.0956  -0.0765  0.03826   8.0518E-05 -3.8746E-04  3.9574E-04  -78.260
    57   12   0.1216   0.0956  -0.0383  0.03826   2.8154E-05 -2.7443E-04  2.7587E-04  -84.142
    58   12   0.1216   0.0956   0.0000  0.03826  -2.5515E-05 -1.4421E-04  1.4645E-04 -100.034
    59   12   0.1216   0.0956   0.0383  0.03826  -7.9409E-05 -7.9059E-06  7.9802E-05 -174.314
    60   12   0.1216   0.0956   0.0765  0.03826  -1.3260E-04  1.2120E-04  1.7965E-04  137.571



                                        - - - POWER BUDGET - - -

                                           INPUT POWER   = 1.5414E-04 WATTS
                                           RADIATED POWER= 1.5414E-04 WATTS
                                           STRUCTURE LOSS= 0.0000E+00 WATTS
                                           NETWORK LOSS  = 0.0000E+00 WATTS
                                           EFFICIENCY    = 100.00 PERCENT



                                                - - - RADIATION PATTERNS - - -

  - - ANGLES - -           - POWER GAINS -       - - - POLARIZATION - - -    - - - E(THETA) - - -    - - - E(PHI) - - -
  THETA     PHI        VERT.   HOR.    TOTAL      AXIAL     TILT   SENSE     MAGNITUDE    PHASE      MAGNITUDE    PHASE 
 DEGREES  DEGREES       DB      DB      DB        RATIO     DEG.              VOLTS/M    DEGREES      VOLTS/M    DEGREES
   90.00     0.00    -148.89    2.28    2.28    0.00000   -90.00  LINEAR    3.45588E-09   172.53    1.24938E-01   -13.18




                                 - - - - - - FREQUENCY - - - - - -

                                    FREQUENCY= 2.4400E+02 MHZ
                                    WAVELENGTH= 1.2287E+00 METERS




                    APPROXIMATE INTEGRATION EMPLOYED FOR SEGMENTS MORE THAN   1.000 WAVELENGTHS APART



                               - - - STRUCTURE IMPEDANCE LOADING - - -

                                   THIS STRUCTURE IS NOT LOADED



                                  - - - ANTENNA ENVIRONMENT - - -

                                            FREE SPACE



                                - - - MATRIX TIMING - - -

                        FILL=    0.000 SEC.,  FACTOR=    0.000 SEC.



                                          - - - ANTENNA INPUT PARAMETERS - - -

   TAG   SEG.    VOLTAGE (VOLTS)         CURRENT (AMPS)         IMPEDANCE (OHMS)        ADMITTANCE (MHOS)      POWER
   NO.   NO.    REAL        IMAG.       REAL        IMAG.       REAL        IMAG.       REAL        IMAG.     (WATTS)
     5    23 1.00000E+00 0.00000E+00 3.15291E-04 2.65386E-03 4.41437E+01-3.71565E+02 3.15291E-04 2.65386E-03 1.57645E-04



                             - - - CURRENTS AND LOCATION - - -

                                 DISTANCES IN WAVELENGTHS


  SEG.  TAG    COORD. OF SEG. CENTER     SEG.            - - - CURRENT (AMPS) - - -
  NO.   NO.     X        Y        Z      LENGTH     REAL        IMAG.       MAG.        PHASE
     1    1  -0.1221  -0.0853   0.1066  0.04265   2.5153E-04 -4.3274E-04  5.0053E-04  -59.833
     2    1  -0.1221  -0.0426   0.1066  0.04265   2.9439E-04 -5.5044E-04  6.2422E-04  -61.861
     3    1  -0.1221   0.0000   0.1066  0.04265   3.0855E-04 -5.9461E-04  6.6990E-04  -62.575
     4    1  -0.1221   0.0426   0.1066  0.04265   2.9439E-04 -5.5044E-04  6.2422E-04  -61.861
     5    1  -0.1221   0.0853   0.1066  0.04265   2.5153E-04 -4.3274E-04  5.0053E-04  -59.833
     6    2  -0.1221  -0.0853  -0.1066  0.04265   1.9371E-04 -6.7837E-04  7.0549E-04  -74.063
     7    2  -0.1221  -0.0426  -0.1066  0.04265   2.3452E-04 -7.7418E-04  8.0892E-04  -73.147
     8    2  -0.1221   0.0000  -0.1066  0.04265   2.4796E-04 -8.0870E-04  8.4586E-04  -72.954
     9    2  -0.1221   0.0426  -0.1066  0.04265   2.3452E-04 -7.7418E-04  8.0892E-04  -73.147
    10    2  -0.1221   0.0853  -0.1066  0.04265   1.9371E-04 -6.7837E-04  7.0549E-04  -74.063
    11    3  -0.1221  -0.1066  -0.0853  0.04265  -1.2618E-04  5.3899E-04  5.5356E-04  103.176
    12    3  -0.1221  -0.1066  -0.0426  0.04265  -5.1226E-05  3.5643E-04  3.6009E-04   98.178
    13    3  -0.1221  -0.1066   0.0000  0.04265   2.6853E-05  1.4646E-04  1.4890E-04   79.610
    14    3  -0.1221  -0.1066   0.0426  0.04265   1.0527E-04 -7.0810E-05  1.2687E-04  -33.926
    15    3  -0.1221  -0.1066   0.0853  0.04265   1.8143E-04 -2.7207E-04  3.2701E-04  -56.302
    16    4  -0.1221   0.1066  -0.0853  0.04265   1.2618E-04 -5.3899E-04  5.5356E-04  -76.824
    17    4  -0.1221   0.1066  -0.0426  0.04265   5.1226E-05 -3.5643E-04  3.6009E-04  -81.822
    18    4  -0.1221   0.1066   0.0000  0.04265  -2.6853E-05 -1.4646E-04  1.4890E-04 -100.390
    19    4  -0.1221   0.1066   0.0426  0.04265  -1.0527E-04  7.0810E-05  1.2687E-04  146.074
    20    4  -0.1221   0.1066   0.0853  0.04265  -1.8143E-04  2.7207E-04  3.2701E-04  123.698
    21    5   0.0000  -0.0814   0.1017  0.04069   2.5692E-04  1.0207E-03  1.0526E-03   75.872
    22    5   0.0000  -0.0407   0.1017  0.04069   3.0091E-04  1.8610E-03  1.8852E-03   80.815
    23    5   0.0000   0.0000   0.1017  0.04069   3.1529E-04  2.6539E-03  2.6725E-03   83.225
    24    5   0.0000   0.0407   0.1017  0.04069   3.0091E-04  1.8610E-03  1.8852E-03   80.815
    25    5   0.0000   0.0814   0.1017  0.04069   2.5692E-04  1.0207E-03  1.0526E-03   75.872
    26    6   0.0000  -0.0814  -0.1017  0.04069   2.0168E-04  2.9988E-03  3.0056E-03   86.152
    27    6   0.0000  -0.0407  -0.1017  0.04069   2.4378E-04  3.2580E-03  3.2671E-03   85.721
    28    6   0.0000   0.0000  -0.1017  0.04069   2.5750E-04  3.3475E-03  3.3574E-03   85.601
    29    6   0.0000   0.0407  -0.1017  0.04069   2.4378E-04  3.2580E-03  3.2671E-03   85.721
    30    6   0.0000   0.0814  -0.1017  0.04069   2.0168E-04  2.9988E-03  3.0056E-03   86.152
    31    7   0.0000  -0.1017  -0.0814  0.04069  -1.3091E-04 -2.5906E-03  2.5939E-03  -92.893
    32    7   0.0000  -0.1017  -0.0407  0.04069  -5.3766E-05 -2.0274E-03  2.0281E-03  -91.519
    33    7   0.0000  -0.1017   0.0000  0.04069   2.5776E-05 -1.3351E-03  1.3354E-03  -88.894
    34    7   0.0000  -0.1017   0.0407  0.04069   1.0560E-04 -5.5940E-04  5.6928E-04  -79.310
    35    7   0.0000  -0.1017   0.0814  0.04069   1.8380E-04  2.4182E-04  3.0374E-04   52.762
    36    8   0.0000   0.1017  -0.0814  0.04069   1.3091E-04  2.5906E-03  2.5939E-03   87.107
    37    8   0.0000   0.1017  -0.0407  0.04069   5.3766E-05  2.0274E-03  2.0281E-03   88.481
    38    8   0.0000   0.1017   0.0000  0.04069  -2.5776E-05  1.3351E-03  1.3354E-03   91.106
    39    8   0.0000   0.1017   0.0407  0.04069  -1.0560E-04  5.5940E-04  5.6928E-04  100.690
    40    8   0.0000   0.1017   0.0814  0.04069  -1.8380E-04 -2.4182E-04  3.0374E-04 -127.238
    41    9   0.1221  -0.0768   0.0960  0.03841   1.8628E-04 -2.3554E-04  3.0030E-04  -51.660
    42    9   0.1221  -0.0384   0.0960  0.03841   2.1717E-04 -3.1507E-04  3.8267E-04  -55.423
    43    9   0.1221   0.0000   0.0960  0.03841   2.2727E-04 -3.4483E-04  4.1299E-04  -56.612
    44    9   0.1221   0.0384   0.0960  0.03841   2.1717E-04 -3.1507E-04  3.8267E-04  -55.423
    45    9   0.1221   0.0768   0.0960  0.03841   1.8628E-04 -2.3554E-04  3.0030E-04  -51.660
    46   10   0.1221  -0.0768  -0.0960  0.03841   1.3203E-04 -4.8174E-04  4.9950E-04  -74.673
    47   10   0.1221  -0.0384  -0.0960  0.03841   1.6139E-04 -5.4326E-04  5.6673E-04  -73.454
    48   10   0.1221   0.0000  -0.0960  0.03841   1.7096E-04 -5.6547E-04  5.9074E-04  -73.178
    49   10   0.1221   0.0384  -0.0960  0.03841   1.6139E-04 -5.4326E-04  5.6673E-04  -73.454
    50   10   0.1221   0.0768  -0.0960  0.03841   1.3203E-04 -4.8174E-04  4.9950E-04  -74.673
    51   11   0.1221  -0.0960  -0.0768  0.03841  -8.2564E-05  3.9281E-04  4.0139E-04  101.870
    52   11   0.1221  -0.0960  -0.0384  0.03841  -2.9141E-05  2.7710E-04  2.7863E-04   96.003
    53   11   0.1221  -0.0960   0.0000  0.03841   2.5637E-05  1.4390E-04  1.4616E-04   79.898
    54   11   0.1221  -0.0960   0.0384  0.03841   8.0648E-05  4.5763E-06  8.0778E-05    3.248
    55   11   0.1221  -0.0960   0.0768  0.03841   1.3492E-04 -1.2729E-04  1.8549E-04  -43.333
    56   12   0.1221   0.0960  -0.0768  0.03841   8.2564E-05 -3.9281E-04  4.0139E-04  -78.130
    57   12   0.1221   0.0960  -0.0384  0.03841   2.9141E-05 -2.7710E-04  2.7863E-04  -83.997
    58   12   0.1221   0.0960   0.0000  0.03841  -2.5637E-05 -1.4390E-04  1.4616E-04 -100.102
    59   12   0.1221   0.0960   0.0384  0.03841  -8.0648E-05 -4.5763E-06  8.0778E-05 -176.752
    60   12   0.1221   0.0960   0.0768  0.03841  -1.3492E-04  1.2729E-04  1.8549E-04  136.667



                                        - - - POWER BUDGET - - -

                                           INPUT POWER   = 1.5765E-04 WATTS
                                           RADIATED POWER= 1.5765E-04 WATTS
                                           STRUCTURE LOSS= 0.0000E+00 WATTS
                                           NETWORK LOSS  = 0.0000E+00 WATTS
                                           EFFICIENCY    = 100.00 PERCENT



                                                - - - RADIATION PATTERNS - - -

  - - ANGLES - -           - POWER GAINS -       - - - POLARIZATION - - -    - - - E(THETA) - - -    - - - E(PHI) - - -
  THETA     PHI        VERT.   HOR.    TOTAL      AXIAL     TILT   SENSE     MAGNITUDE    PHASE      MAGNITUDE    PHASE 
 DEGREES  DEGREES       DB      DB      DB        RATIO     DEG.              VOLTS/M    DEGREES      VOLTS/M    DEGREES
   90.00     0.00    -148.86    2.29    2.29    0.00000   -90.00  LINEAR    3.50493E-09   172.61    1.26524E-01   -13.18




                                 - - - - - - FREQUENCY - - - - - -

                                    FREQUENCY= 2.4500E+02 MHZ
                                    WAVELENGTH= 1.2237E+00 METERS




                    APPROXIMATE INTEGRATION EMPLOYED FOR SEGMENTS MORE THAN   1.000 WAVELENGTHS APART



                               - - - STRUCTURE IMPEDANCE LOADING - - -

                                   THIS STRUCTURE IS NOT LOADED



                                  - - - ANTENNA ENVIRONMENT - - -

                                            FREE SPACE



                                - - - MATRIX TIMING - - -

                        FILL=    0.000 SEC.,  FACTOR=    0.000 SEC.



                                          - - - ANTENNA INPUT PARAMETERS - - -

   TAG   SEG.    VOLTAGE (VOLTS)         CURRENT (AMPS)         IMPEDANCE (OHMS)        ADMITTANCE (MHOS)      POWER
   NO.   NO.    REAL        IMAG.       REAL        IMAG.       REAL        IMAG.       REAL        IMAG.     (WATTS)
     5    23 1.00000E+00 0.00000E+00 3.22469E-04 2.69966E-03 4.36233E+01-3.65207E+02 3.22469E-04 2.69966E-03 1.61235E-04



                             - - - CURRENTS AND LOCATION - - -

                                 DISTANCES IN WAVELENGTHS


  SEG.  TAG    COORD. OF SEG. CENTER     SEG.            - - - CURRENT (AMPS) - - -
  NO.   NO.     X        Y        Z      LENGTH     REAL        IMAG.       MAG.        PHASE
     1    1  -0.1226  -0.0856   0.1071  0.04282   2.5588E-04 -4.4982E-04  5.1750E-04  -60.367
     2    1  -0.1226  -0.0428   0.1071  0.04282   2.9953E-04 -5.7063E-04  6.4446E-04  -62.304
     3    1  -0.1226   0.0000   0.1071  0.04282   3.1396E-04 -6.1591E-04  6.9132E-04  -62.990
     4    1  -0.1226   0.0428   0.1071  0.04282   2.9953E-04 -5.7063E-04  6.4446E-04  -62.304
     5    1  -0.1226   0.0856   0.1071  0.04282   2.5588E-04 -4.4982E-04  5.1750E-04  -60.367
     6    2  -0.1226  -0.0856  -0.1071  0.04282   1.9772E-04 -6.9460E-04  7.2219E-04  -74.111
     7    2  -0.1226  -0.0428  -0.1071  0.04282   2.3927E-04 -7.9339E-04  8.2869E-04  -73.218
     8    2  -0.1226   0.0000  -0.1071  0.04282   2.5296E-04 -8.2897E-04  8.6671E-04  -73.030
     9    2  -0.1226   0.0428  -0.1071  0.04282   2.3927E-04 -7.9339E-04  8.2869E-04  -73.218
    10    2  -0.1226   0.0856  -0.1071  0.04282   1.9772E-04 -6.9460E-04  7.2219E-04  -74.111
    11    3  -0.1226  -0.1071  -0.0856  0.04282  -1.2898E-04  5.5071E-04  5.6561E-04  103.181
    12    3  -0.1226  -0.1071  -0.0428  0.04282  -5.2620E-05  3.6247E-04  3.6627E-04   98.260
    13    3  -0.1226  -0.1071   0.0000  0.04282   2.6965E-05  1.4616E-04  1.4863E-04   79.547
    14    3  -0.1226  -0.1071   0.0428  0.04282   1.0690E-04 -7.7497E-05  1.3204E-04  -35.940
    15    3  -0.1226  -0.1071   0.0856  0.04282   1.8450E-04 -2.8454E-04  3.3912E-04  -57.039
    16    4  -0.1226   0.1071  -0.0856  0.04282   1.2898E-04 -5.5071E-04  5.6561E-04  -76.819
    17    4  -0.1226   0.1071  -0.0428  0.04282   5.2620E-05 -3.6247E-04  3.6627E-04  -81.740
    18    4  -0.1226   0.1071   0.0000  0.04282  -2.6965E-05 -1.4616E-04  1.4863E-04 -100.453
    19    4  -0.1226   0.1071   0.0428  0.04282  -1.0690E-04  7.7497E-05  1.3204E-04  144.060
    20    4  -0.1226   0.1071   0.0856  0.04282  -1.8450E-04  2.8454E-04  3.3912E-04  122.961
    21    5   0.0000  -0.0817   0.1022  0.04086   2.6269E-04  1.0543E-03  1.0865E-03   76.009
    22    5   0.0000  -0.0409   0.1022  0.04086   3.0773E-04  1.9021E-03  1.9268E-03   80.810
    23    5   0.0000   0.0000   0.1022  0.04086   3.2247E-04  2.6997E-03  2.7188E-03   83.188
    24    5   0.0000   0.0409   0.1022  0.04086   3.0773E-04  1.9021E-03  1.9268E-03   80.810
    25    5   0.0000   0.0817   0.1022  0.04086   2.6269E-04  1.0543E-03  1.0865E-03   76.009
    26    6   0.0000  -0.0817  -0.1022  0.04086   2.0709E-04  3.0230E-03  3.0301E-03   86.081
    27    6   0.0000  -0.0409  -0.1022  0.04086   2.5020E-04  3.2867E-03  3.2962E-03   85.647
    28    6   0.0000   0.0000  -0.1022  0.04086   2.6425E-04  3.3778E-03  3.3881E-03   85.527
    29    6   0.0000   0.0409  -0.1022  0.04086   2.5020E-04  3.2867E-03  3.2962E-03   85.647
    30    6   0.0000   0.0817  -0.1022  0.04086   2.0709E-04  3.0230E-03  3.0301E-03   86.081
    31    7   0.0000  -0.1022  -0.0817  0.04086  -1.3466E-04 -2.6080E-03  2.6115E-03  -92.956
    32    7   0.0000  -0.1022  -0.0409  0.04086  -5.5635E-05 -2.0357E-03  2.0364E-03  -91.566
    33    7   0.0000  -0.1022   0.0000  0.04086   2.5902E-05 -1.3326E-03  1.3329E-03  -88.886
    34    7   0.0000  -0.1022   0.0409  0.04086   1.0773E-04 -5.4560E-04  5.5614E-04  -78.830
    35    7   0.0000  -0.1022   0.0817  0.04086   1.8785E-04  2.6628E-04  3.2587E-04   54.798
    36    8   0.0000   0.1022  -0.0817  0.04086   1.3466E-04  2.6080E-03  2.6115E-03   87.044
    37    8   0.0000   0.1022  -0.0409  0.04086   5.5635E-05  2.0357E-03  2.0364E-03   88.434
    38    8   0.0000   0.1022   0.0000  0.04086  -2.5902E-05  1.3326E-03  1.3329E-03   91.114
    39    8   0.0000   0.1022   0.0409  0.04086  -1.0773E-04  5.4560E-04  5.5614E-04  101.170
    40    8   0.0000   0.1022   0.0817  0.04086  -1.8785E-04 -2.6628E-04  3.2587E-04 -125.202
    41    9   0.1226  -0.0771   0.0964  0.03857   1.8967E-04 -2.4406E-04  3.0910E-04  -52.148
    42    9   0.1226  -0.0386   0.0964  0.03857   2.2118E-04 -3.2516E-04  3.9325E-04  -55.776
    43    9   0.1226   0.0000   0.0964  0.03857   2.3149E-04 -3.5548E-04  4.2421E-04  -56.928
    44    9   0.1226   0.0386   0.0964  0.03857   2.2118E-04 -3.2516E-04  3.9325E-04  -55.776
    45    9   0.1226   0.0771   0.0964  0.03857   1.8967E-04 -2.4406E-04  3.0910E-04  -52.148
    46   10   0.1226  -0.0771  -0.0964  0.03857   1.3510E-04 -4.8943E-04  5.0773E-04  -74.569
    47   10   0.1226  -0.0386  -0.0964  0.03857   1.6504E-04 -5.5242E-04  5.7655E-04  -73.366
    48   10   0.1226   0.0000  -0.0964  0.03857   1.7480E-04 -5.7514E-04  6.0112E-04  -73.095
    49   10   0.1226   0.0386  -0.0964  0.03857   1.6504E-04 -5.5242E-04  5.7655E-04  -73.366
    50   10   0.1226   0.0771  -0.0964  0.03857   1.3510E-04 -4.8943E-04  5.0773E-04  -74.569
    51   11   0.1226  -0.0964  -0.0771  0.03857  -8.4654E-05  3.9832E-04  4.0721E-04  101.999
    52   11   0.1226  -0.0964  -0.0386  0.03857  -3.0152E-05  2.7986E-04  2.8148E-04   96.149
    53   11   0.1226  -0.0964   0.0000  0.03857   2.5758E-05  1.4359E-04  1.4588E-04   79.830
    54   11   0.1226  -0.0964   0.0386  0.03857   8.1909E-05  1.1658E-06  8.1918E-05    0.815
    55   11   0.1226  -0.0964   0.0771  0.03857   1.3729E-04 -1.3354E-04  1.9152E-04  -44.206
    56   12   0.1226   0.0964  -0.0771  0.03857   8.4654E-05 -3.9832E-04  4.0721E-04  -78.001
    57   12   0.1226   0.0964  -0.0386  0.03857   3.0152E-05 -2.7986E-04  2.8148E-04  -83.851
    58   12   0.1226   0.0964   0.0000  0.03857  -2.5758E-05 -1.4359E-04  1.4588E-04 -100.170
    59   12   0.1226   0.0964   0.0386  0.03857  -8.1909E-05 -1.1658E-06  8.1918E-05 -179.185
    60   12   0.1226   0.0964   0.0771  0.03857  -1.3729E-04  1.3354E-04  1.9152E-04  135.794



                                        - - - POWER BUDGET - - -

                                           INPUT POWER   = 1.6123E-04 WATTS
                                           RADIATED POWER= 1.6123E-04 WATTS
                                           STRUCTURE LOSS= 0.0000E+00 WATTS
                                           NETWORK LOSS  = 0.0000E+00 WATTS
                                           EFFICIENCY    = 100.00 PERCENT



                                                - - - RADIATION PATTERNS - - -

  - - ANGLES - -           - POWER GAINS -       - - - POLARIZATION - - -    - - - E(THETA) - - -    - - - E(PHI) - - -
  THETA     PHI        VERT.   HOR.    TOTAL      AXIAL     TILT   SENSE     MAGNITUDE    PHASE      MAGNITUDE    PHASE 
 DEGREES  DEGREES       DB      DB      DB        RATIO     DEG.              VOLTS/M    DEGREES      VOLTS/M    DEGREES
   90.00     0.00    -148.84    2.30    2.30    0.00000   -90.00  LINEAR    3.55491E-09   172.70    1.28131E-01   -13.17




                                 - - - - - - FREQUENCY - - - - - -

                                    FREQUENCY= 2.4600E+02 MHZ
                                    WAVELENGTH= 1.2187E+00 METERS




                    APPROXIMATE INTEGRATION EMPLOYED FOR SEGMENTS MORE THAN   1.000 WAVELENGTHS APART



                               - - - STRUCTURE IMPEDANCE LOADING - - -

                                   THIS STRUCTURE IS NOT LOADED



                                  - - - ANTENNA ENVIRONMENT - - -

                                            FREE SPACE



                                - - - MATRIX TIMING - - -

                        FILL=    0.050 SEC.,  FACTOR=    0.000 SEC.



                                          - - - ANTENNA INPUT PARAMETERS - - -

   TAG   SEG.    VOLTAGE (VOLTS)         CURRENT (AMPS)         IMPEDANCE (OHMS)        ADMITTANCE (MHOS)      POWER
   NO.   NO.    REAL        IMAG.       REAL        IMAG.       REAL        IMAG.       REAL        IMAG.     (WATTS)
     5    23 1.00000E+00 0.00000E+00 3.29815E-04 2.74632E-03 4.31072E+01-3.58947E+02 3.29815E-04 2.74632E-03 1.64907E-04



                             - - - CURRENTS AND LOCATION - - -

                                 DISTANCES IN WAVELENGTHS


  SEG.  TAG    COORD. OF SEG. CENTER     SEG.            - - - CURRENT (AMPS) - - -
  NO.   NO.     X        Y        Z      LENGTH     REAL        IMAG.       MAG.        PHASE
     1    1  -0.1231  -0.0860   0.1075  0.04300   2.6023E-04 -4.6755E-04  5.3510E-04  -60.900
     2    1  -0.1231  -0.0430   0.1075  0.04300   3.0468E-04 -5.9160E-04  6.6545E-04  -62.751
     3    1  -0.1231   0.0000   0.1075  0.04300   3.1938E-04 -6.3803E-04  7.1351E-04  -63.409
     4    1  -0.1231   0.0430   0.1075  0.04300   3.0468E-04 -5.9160E-04  6.6545E-04  -62.751
     5    1  -0.1231   0.0860   0.1075  0.04300   2.6023E-04 -4.6755E-04  5.3510E-04  -60.900
     6    2  -0.1231  -0.0860  -0.1075  0.04300   2.0173E-04 -7.1149E-04  7.3954E-04  -74.170
     7    2  -0.1231  -0.0430  -0.1075  0.04300   2.4403E-04 -8.1340E-04  8.4922E-04  -73.300
     8    2  -0.1231   0.0000  -0.1075  0.04300   2.5797E-04 -8.5007E-04  8.8836E-04  -73.119
     9    2  -0.1231   0.0430  -0.1075  0.04300   2.4403E-04 -8.1340E-04  8.4922E-04  -73.300
    10    2  -0.1231   0.0860  -0.1075  0.04300   2.0173E-04 -7.1149E-04  7.3954E-04  -74.170
    11    3  -0.1231  -0.1075  -0.0860  0.04300  -1.3178E-04  5.6292E-04  5.7814E-04  103.176
    12    3  -0.1231  -0.1075  -0.0430  0.04300  -5.4019E-05  3.6878E-04  3.7271E-04   98.334
    13    3  -0.1231  -0.1075   0.0000  0.04300   2.7075E-05  1.4586E-04  1.4836E-04   79.485
    14    3  -0.1231  -0.1075   0.0430  0.04300   1.0853E-04 -8.4436E-05  1.3751E-04  -37.882
    15    3  -0.1231  -0.1075   0.0860  0.04300   1.8758E-04 -2.9749E-04  3.5169E-04  -57.767
    16    4  -0.1231   0.1075  -0.0860  0.04300   1.3178E-04 -5.6292E-04  5.7814E-04  -76.824
    17    4  -0.1231   0.1075  -0.0430  0.04300   5.4019E-05 -3.6878E-04  3.7271E-04  -81.666
    18    4  -0.1231   0.1075   0.0000  0.04300  -2.7075E-05 -1.4586E-04  1.4836E-04 -100.515
    19    4  -0.1231   0.1075   0.0430  0.04300  -1.0853E-04  8.4436E-05  1.3751E-04  142.118
    20    4  -0.1231   0.1075   0.0860  0.04300  -1.8758E-04  2.9749E-04  3.5169E-04  122.233
    21    5   0.0000  -0.0821   0.1026  0.04103   2.6859E-04  1.0885E-03  1.1211E-03   76.139
    22    5   0.0000  -0.0410   0.1026  0.04103   3.1472E-04  1.9439E-03  1.9692E-03   80.804
    23    5   0.0000   0.0000   0.1026  0.04103   3.2981E-04  2.7463E-03  2.7660E-03   83.152
    24    5   0.0000   0.0410   0.1026  0.04103   3.1472E-04  1.9439E-03  1.9692E-03   80.804
    25    5   0.0000   0.0821   0.1026  0.04103   2.6859E-04  1.0885E-03  1.1211E-03   76.139
    26    6   0.0000  -0.0821  -0.1026  0.04103   2.1262E-04  3.0480E-03  3.0554E-03   86.010
    27    6   0.0000  -0.0410  -0.1026  0.04103   2.5677E-04  3.3162E-03  3.3261E-03   85.572
    28    6   0.0000   0.0000  -0.1026  0.04103   2.7117E-04  3.4089E-03  3.4197E-03   85.452
    29    6   0.0000   0.0410  -0.1026  0.04103   2.5677E-04  3.3162E-03  3.3261E-03   85.572
    30    6   0.0000   0.0821  -0.1026  0.04103   2.1262E-04  3.0480E-03  3.0554E-03   86.010
    31    7   0.0000  -0.1026  -0.0821  0.04103  -1.3851E-04 -2.6260E-03  2.6296E-03  -93.019
    32    7   0.0000  -0.1026  -0.0410  0.04103  -5.7556E-05 -2.0442E-03  2.0450E-03  -91.613
    33    7   0.0000  -0.1026   0.0000  0.04103   2.6028E-05 -1.3302E-03  1.3304E-03  -88.879
    34    7   0.0000  -0.1026   0.0410  0.04103   1.0992E-04 -5.3157E-04  5.4281E-04  -78.317
    35    7   0.0000  -0.1026   0.0821  0.04103   1.9200E-04  2.9123E-04  3.4882E-04   56.605
    36    8   0.0000   0.1026  -0.0821  0.04103   1.3851E-04  2.6260E-03  2.6296E-03   86.981
    37    8   0.0000   0.1026  -0.0410  0.04103   5.7556E-05  2.0442E-03  2.0450E-03   88.387
    38    8   0.0000   0.1026   0.0000  0.04103  -2.6028E-05  1.3302E-03  1.3304E-03   91.121
    39    8   0.0000   0.1026   0.0410  0.04103  -1.0992E-04  5.3157E-04  5.4281E-04  101.683
    40    8   0.0000   0.1026   0.0821  0.04103  -1.9200E-04 -2.9123E-04  3.4882E-04 -123.395
    41    9   0.1231  -0.0775   0.0968  0.03873   1.9313E-04 -2.5280E-04  3.1813E-04  -52.622
    42    9   0.1231  -0.0387   0.0968  0.03873   2.2527E-04 -3.3550E-04  4.0411E-04  -56.121
    43    9   0.1231   0.0000   0.0968  0.03873   2.3579E-04 -3.6640E-04  4.3571E-04  -57.238
    44    9   0.1231   0.0387   0.0968  0.03873   2.2527E-04 -3.3550E-04  4.0411E-04  -56.121
    45    9   0.1231   0.0775   0.0968  0.03873   1.9313E-04 -2.5280E-04  3.1813E-04  -52.622
    46   10   0.1231  -0.0775  -0.0968  0.03873   1.3822E-04 -4.9735E-04  5.1620E-04  -74.468
    47   10   0.1231  -0.0387  -0.0968  0.03873   1.6877E-04 -5.6185E-04  5.8665E-04  -73.281
    48   10   0.1231   0.0000  -0.0968  0.03873   1.7872E-04 -5.8511E-04  6.1179E-04  -73.015
    49   10   0.1231   0.0387  -0.0968  0.03873   1.6877E-04 -5.6185E-04  5.8665E-04  -73.281
    50   10   0.1231   0.0775  -0.0968  0.03873   1.3822E-04 -4.9735E-04  5.1620E-04  -74.468
    51   11   0.1231  -0.0968  -0.0775  0.03873  -8.6792E-05  4.0399E-04  4.1321E-04  102.125
    52   11   0.1231  -0.0968  -0.0387  0.03873  -3.1188E-05  2.8271E-04  2.8442E-04   96.295
    53   11   0.1231  -0.0968   0.0000  0.03873   2.5879E-05  1.4328E-04  1.4560E-04   79.762
    54   11   0.1231  -0.0968   0.0387  0.03873   8.3194E-05 -2.3282E-06  8.3227E-05   -1.603
    55   11   0.1231  -0.0968   0.0775  0.03873   1.3970E-04 -1.3994E-04  1.9774E-04  -45.049
    56   12   0.1231   0.0968  -0.0775  0.03873   8.6792E-05 -4.0399E-04  4.1321E-04  -77.875
    57   12   0.1231   0.0968  -0.0387  0.03873   3.1188E-05 -2.8271E-04  2.8442E-04  -83.705
    58   12   0.1231   0.0968   0.0000  0.03873  -2.5879E-05 -1.4328E-04  1.4560E-04 -100.238
    59   12   0.1231   0.0968   0.0387  0.03873  -8.3194E-05  2.3282E-06  8.3227E-05  178.397
    60   12   0.1231   0.0968   0.0775  0.03873  -1.3970E-04  1.3994E-04  1.9774E-04  134.951



                                        - - - POWER BUDGET - - -

                                           INPUT POWER   = 1.6491E-04 WATTS
                                           RADIATED POWER= 1.6491E-04 WATTS
                                           STRUCTURE LOSS= 0.0000E+00 WATTS
                                           NETWORK LOSS  = 0.0000E+00 WATTS
                                           EFFICIENCY    = 100.00 PERCENT



                                                - - - RADIATION PATTERNS - - -

  - - ANGLES - -           - POWER GAINS -       - - - POLARIZATION - - -    - - - E(THETA) - - -    - - - E(PHI) - - -
  THETA     PHI        VERT.   HOR.    TOTAL      AXIAL     TILT   SENSE     MAGNITUDE    PHASE      MAGNITUDE    PHASE 
 DEGREES  DEGREES       DB      DB      DB        RATIO     DEG.              VOLTS/M    DEGREES      VOLTS/M    DEGREES
   90.00     0.00    -148.81    2.31    2.31    0.00000   -90.00  LINEAR    3.60588E-09   172.81    1.29760E-01   -13.16




                                 - - - - - - FREQUENCY - - - - - -

                                    FREQUENCY= 2.4700E+02 MHZ
                                    WAVELENGTH= 1.2138E+00 METERS




                    APPROXIMATE INTEGRATION EMPLOYED FOR SEGMENTS MORE THAN   1.000 WAVELENGTHS APART



                               - - - STRUCTURE IMPEDANCE LOADING - - -

                                   THIS STRUCTURE IS NOT LOADED



                                  - - - ANTENNA ENVIRONMENT - - -

                                            FREE SPACE



                                - - - MATRIX TIMING - - -

                        FILL=    0.000 SEC.,  FACTOR=    0.060 SEC.



                                          - - - ANTENNA INPUT PARAMETERS - - -

   TAG   SEG.    VOLTAGE (VOLTS)         CURRENT (AMPS)         IMPEDANCE (OHMS)        ADMITTANCE (MHOS)      POWER
   NO.   NO.    REAL        IMAG.       REAL        IMAG.       REAL        IMAG.       REAL        IMAG.     (WATTS)
     5    23 1.00000E+00 0.00000E+00 3.37332E-04 2.79388E-03 4.25949E+01-3.52782E+02 3.37332E-04 2.79388E-03 1.68666E-04



                             - - - CURRENTS AND LOCATION - - -

                                 DISTANCES IN WAVELENGTHS


  SEG.  TAG    COORD. OF SEG. CENTER     SEG.            - - - CURRENT (AMPS) - - -
  NO.   NO.     X        Y        Z      LENGTH     REAL        IMAG.       MAG.        PHASE
     1    1  -0.1236  -0.0863   0.1079  0.04317   2.6459E-04 -4.8599E-04  5.5335E-04  -61.435
     2    1  -0.1236  -0.0432   0.1079  0.04317   3.0984E-04 -6.1339E-04  6.8720E-04  -63.201
     3    1  -0.1236   0.0000   0.1079  0.04317   3.2480E-04 -6.6102E-04  7.3651E-04  -63.832
     4    1  -0.1236   0.0432   0.1079  0.04317   3.0984E-04 -6.1339E-04  6.8720E-04  -63.201
     5    1  -0.1236   0.0863   0.1079  0.04317   2.6459E-04 -4.8599E-04  5.5335E-04  -61.435
     6    2  -0.1236  -0.0863  -0.1079  0.04317   2.0575E-04 -7.2909E-04  7.5756E-04  -74.241
     7    2  -0.1236  -0.0432  -0.1079  0.04317   2.4879E-04 -8.3423E-04  8.7054E-04  -73.394
     8    2  -0.1236   0.0000  -0.1079  0.04317   2.6298E-04 -8.7205E-04  9.1084E-04  -73.218
     9    2  -0.1236   0.0432  -0.1079  0.04317   2.4879E-04 -8.3423E-04  8.7054E-04  -73.394
    10    2  -0.1236   0.0863  -0.1079  0.04317   2.0575E-04 -7.2909E-04  7.5756E-04  -74.241
    11    3  -0.1236  -0.1079  -0.0863  0.04317  -1.3459E-04  5.7565E-04  5.9117E-04  103.159
    12    3  -0.1236  -0.1079  -0.0432  0.04317  -5.5421E-05  3.7535E-04  3.7942E-04   98.399
    13    3  -0.1236  -0.1079   0.0000  0.04317   2.7184E-05  1.4557E-04  1.4809E-04   79.422
    14    3  -0.1236  -0.1079   0.0432  0.04317   1.1016E-04 -9.1642E-05  1.4330E-04  -39.756
    15    3  -0.1236  -0.1079   0.0863  0.04317   1.9066E-04 -3.1095E-04  3.6475E-04  -58.486
    16    4  -0.1236   0.1079  -0.0863  0.04317   1.3459E-04 -5.7565E-04  5.9117E-04  -76.841
    17    4  -0.1236   0.1079  -0.0432  0.04317   5.5421E-05 -3.7535E-04  3.7942E-04  -81.601
    18    4  -0.1236   0.1079   0.0000  0.04317  -2.7184E-05 -1.4557E-04  1.4809E-04 -100.578
    19    4  -0.1236   0.1079   0.0432  0.04317  -1.1016E-04  9.1642E-05  1.4330E-04  140.244
    20    4  -0.1236   0.1079   0.0863  0.04317  -1.9066E-04  3.1095E-04  3.6475E-04  121.514
    21    5   0.0000  -0.0824   0.1030  0.04119   2.7463E-04  1.1234E-03  1.1565E-03   76.263
    22    5   0.0000  -0.0412   0.1030  0.04119   3.2186E-04  1.9866E-03  2.0125E-03   80.797
    23    5   0.0000   0.0000   0.1030  0.04119   3.3733E-04  2.7939E-03  2.8142E-03   83.115
    24    5   0.0000   0.0412   0.1030  0.04119   3.2186E-04  1.9866E-03  2.0125E-03   80.797
    25    5   0.0000   0.0824   0.1030  0.04119   2.7463E-04  1.1234E-03  1.1565E-03   76.263
    26    6   0.0000  -0.0824  -0.1030  0.04119   2.1830E-04  3.0737E-03  3.0814E-03   85.938
    27    6   0.0000  -0.0412  -0.1030  0.04119   2.6351E-04  3.3467E-03  3.3570E-03   85.498
    28    6   0.0000   0.0000  -0.1030  0.04119   2.7826E-04  3.4410E-03  3.4522E-03   85.377
    29    6   0.0000   0.0412  -0.1030  0.04119   2.6351E-04  3.3467E-03  3.3570E-03   85.498
    30    6   0.0000   0.0824  -0.1030  0.04119   2.1830E-04  3.0737E-03  3.0814E-03   85.938
    31    7   0.0000  -0.1030  -0.0824  0.04119  -1.4246E-04 -2.6445E-03  2.6484E-03  -93.083
    32    7   0.0000  -0.1030  -0.0412  0.04119  -5.9529E-05 -2.0531E-03  2.0540E-03  -91.661
    33    7   0.0000  -0.1030   0.0000  0.04119   2.6153E-05 -1.3278E-03  1.3280E-03  -88.872
    34    7   0.0000  -0.1030   0.0412  0.04119   1.1215E-04 -5.1728E-04  5.2930E-04  -77.767
    35    7   0.0000  -0.1030   0.0824  0.04119   1.9624E-04  3.1669E-04  3.7256E-04   58.215
    36    8   0.0000   0.1030  -0.0824  0.04119   1.4246E-04  2.6445E-03  2.6484E-03   86.917
    37    8   0.0000   0.1030  -0.0412  0.04119   5.9529E-05  2.0531E-03  2.0540E-03   88.339
    38    8   0.0000   0.1030   0.0000  0.04119  -2.6152E-05  1.3278E-03  1.3280E-03   91.128
    39    8   0.0000   0.1030   0.0412  0.04119  -1.1215E-04  5.1728E-04  5.2930E-04  102.233
    40    8   0.0000   0.1030   0.0824  0.04119  -1.9624E-04 -3.1669E-04  3.7256E-04 -121.785
    41    9   0.1236  -0.0778   0.0972  0.03889   1.9665E-04 -2.6177E-04  3.2741E-04  -53.085
    42    9   0.1236  -0.0389   0.0972  0.03889   2.2944E-04 -3.4612E-04  4.1526E-04  -56.460
    43    9   0.1236   0.0000   0.0972  0.03889   2.4017E-04 -3.7761E-04  4.4752E-04  -57.542
    44    9   0.1236   0.0389   0.0972  0.03889   2.2944E-04 -3.4612E-04  4.1526E-04  -56.460
    45    9   0.1236   0.0778   0.0972  0.03889   1.9665E-04 -2.6177E-04  3.2741E-04  -53.085
    46   10   0.1236  -0.0778  -0.0972  0.03889   1.4142E-04 -5.0550E-04  5.2491E-04  -74.370
    47   10   0.1236  -0.0389  -0.0972  0.03889   1.7257E-04 -5.7155E-04  5.9703E-04  -73.199
    48   10   0.1236   0.0000  -0.0972  0.03889   1.8273E-04 -5.9536E-04  6.2277E-04  -72.938
    49   10   0.1236   0.0389  -0.0972  0.03889   1.7257E-04 -5.7155E-04  5.9703E-04  -73.199
    50   10   0.1236   0.0778  -0.0972  0.03889   1.4142E-04 -5.0550E-04  5.2491E-04  -74.370
    51   11   0.1236  -0.0972  -0.0778  0.03889  -8.8980E-05  4.0984E-04  4.1938E-04  102.249
    52   11   0.1236  -0.0972  -0.0389  0.03889  -3.2250E-05  2.8565E-04  2.8746E-04   96.441
    53   11   0.1236  -0.0972   0.0000  0.03889   2.5998E-05  1.4298E-04  1.4533E-04   79.695
    54   11   0.1236  -0.0972   0.0389  0.03889   8.4504E-05 -5.9085E-06  8.4710E-05   -4.000
    55   11   0.1236  -0.0972   0.0778  0.03889   1.4217E-04 -1.4652E-04  2.0415E-04  -45.863
    56   12   0.1236   0.0972  -0.0778  0.03889   8.8980E-05 -4.0984E-04  4.1938E-04  -77.751
    57   12   0.1236   0.0972  -0.0389  0.03889   3.2250E-05 -2.8565E-04  2.8746E-04  -83.559
    58   12   0.1236   0.0972   0.0000  0.03889  -2.5998E-05 -1.4298E-04  1.4533E-04 -100.305
    59   12   0.1236   0.0972   0.0389  0.03889  -8.4504E-05  5.9084E-06  8.4710E-05  176.000
    60   12   0.1236   0.0972   0.0778  0.03889  -1.4217E-04  1.4652E-04  2.0415E-04  134.137



                                        - - - POWER BUDGET - - -

                                           INPUT POWER   = 1.6867E-04 WATTS
                                           RADIATED POWER= 1.6867E-04 WATTS
                                           STRUCTURE LOSS= 0.0000E+00 WATTS
                                           NETWORK LOSS  = 0.0000E+00 WATTS
                                           EFFICIENCY    = 100.00 PERCENT



                                                - - - RADIATION PATTERNS - - -

  - - ANGLES - -           - POWER GAINS -       - - - POLARIZATION - - -    - - - E(THETA) - - -    - - - E(PHI) - - -
  THETA     PHI        VERT.   HOR.    TOTAL      AXIAL     TILT   SENSE     MAGNITUDE    PHASE      MAGNITUDE    PHASE 
 DEGREES  DEGREES       DB      DB      DB        RATIO     DEG.              VOLTS/M    DEGREES      VOLTS/M    DEGREES
   90.00     0.00    -148.78    2.32    2.32    0.00000   -90.00  LINEAR    3.65789E-09   172.92    1.31413E-01   -13.13




                                 - - - - - - FREQUENCY - - - - - -

                                    FREQUENCY= 2.4800E+02 MHZ
                                    WAVELENGTH= 1.2089E+00 METERS




                    APPROXIMATE INTEGRATION EMPLOYED FOR SEGMENTS MORE THAN   1.000 WAVELENGTHS APART



                               - - - STRUCTURE IMPEDANCE LOADING - - -

                                   THIS STRUCTURE IS NOT LOADED



                                  - - - ANTENNA ENVIRONMENT - - -

                                            FREE SPACE



                                - - - MATRIX TIMING - - -

                        FILL=    0.000 SEC.,  FACTOR=    0.000 SEC.



                                          - - - ANTENNA INPUT PARAMETERS - - -

   TAG   SEG.    VOLTAGE (VOLTS)         CURRENT (AMPS)         IMPEDANCE (OHMS)        ADMITTANCE (MHOS)      POWER
   NO.   NO.    REAL        IMAG.       REAL        IMAG.       REAL        IMAG.       REAL        IMAG.     (WATTS)
     5    23 1.00000E+00 0.00000E+00 3.45028E-04 2.84239E-03 4.20857E+01-3.46708E+02 3.45028E-04 2.84239E-03 1.72514E-04



                             - - - CURRENTS AND LOCATION - - -

                                 DISTANCES IN WAVELENGTHS


  SEG.  TAG    COORD. OF SEG. CENTER     SEG.            - - - CURRENT (AMPS) - - -
  NO.   NO.     X        Y        Z      LENGTH     REAL        IMAG.       MAG.        PHASE
     1    1  -0.1241  -0.0867   0.1084  0.04335   2.6894E-04 -5.0516E-04  5.7229E-04  -61.970
     2    1  -0.1241  -0.0433   0.1084  0.04335   3.1498E-04 -6.3605E-04  7.0977E-04  -63.655
     3    1  -0.1241   0.0000   0.1084  0.04335   3.3021E-04 -6.8493E-04  7.6037E-04  -64.261
     4    1  -0.1241   0.0433   0.1084  0.04335   3.1498E-04 -6.3605E-04  7.0977E-04  -63.655
     5    1  -0.1241   0.0867   0.1084  0.04335   2.6894E-04 -5.0516E-04  5.7229E-04  -61.970
     6    2  -0.1241  -0.0867  -0.1084  0.04335   2.0976E-04 -7.4742E-04  7.7630E-04  -74.324
     7    2  -0.1241  -0.0433  -0.1084  0.04335   2.5354E-04 -8.5593E-04  8.9269E-04  -73.500
     8    2  -0.1241   0.0000  -0.1084  0.04335   2.6798E-04 -8.9494E-04  9.3420E-04  -73.330
     9    2  -0.1241   0.0433  -0.1084  0.04335   2.5354E-04 -8.5593E-04  8.9269E-04  -73.500
    10    2  -0.1241   0.0867  -0.1084  0.04335   2.0976E-04 -7.4742E-04  7.7630E-04  -74.324
    11    3  -0.1241  -0.1084  -0.0867  0.04335  -1.3739E-04  5.8891E-04  6.0473E-04  103.132
    12    3  -0.1241  -0.1084  -0.0433  0.04335  -5.6821E-05  3.8221E-04  3.8641E-04   98.456
    13    3  -0.1241  -0.1084   0.0000  0.04335   2.7292E-05  1.4528E-04  1.4782E-04   79.361
    14    3  -0.1241  -0.1084   0.0433  0.04335   1.1179E-04 -9.9126E-05  1.4941E-04  -41.563
    15    3  -0.1241  -0.1084   0.0867  0.04335   1.9373E-04 -3.2494E-04  3.7831E-04  -59.197
    16    4  -0.1241   0.1084  -0.0867  0.04335   1.3739E-04 -5.8891E-04  6.0473E-04  -76.868
    17    4  -0.1241   0.1084  -0.0433  0.04335   5.6821E-05 -3.8221E-04  3.8641E-04  -81.544
    18    4  -0.1241   0.1084   0.0000  0.04335  -2.7292E-05 -1.4528E-04  1.4782E-04 -100.639
    19    4  -0.1241   0.1084   0.0433  0.04335  -1.1179E-04  9.9126E-05  1.4941E-04  138.437
    20    4  -0.1241   0.1084   0.0867  0.04335  -1.9373E-04  3.2494E-04  3.7831E-04  120.803
    21    5   0.0000  -0.0827   0.1034  0.04136   2.8081E-04  1.1591E-03  1.1926E-03   76.381
    22    5   0.0000  -0.0414   0.1034  0.04136   3.2918E-04  2.0302E-03  2.0568E-03   80.790
    23    5   0.0000   0.0000   0.1034  0.04136   3.4503E-04  2.8424E-03  2.8633E-03   83.079
    24    5   0.0000   0.0414   0.1034  0.04136   3.2918E-04  2.0302E-03  2.0568E-03   80.790
    25    5   0.0000   0.0827   0.1034  0.04136   2.8081E-04  1.1591E-03  1.1926E-03   76.381
    26    6   0.0000  -0.0827  -0.1034  0.04136   2.2412E-04  3.1002E-03  3.1083E-03   85.865
    27    6   0.0000  -0.0414  -0.1034  0.04136   2.7041E-04  3.3781E-03  3.3889E-03   85.423
    28    6   0.0000   0.0000  -0.1034  0.04136   2.8552E-04  3.4741E-03  3.4858E-03   85.302
    29    6   0.0000   0.0414  -0.1034  0.04136   2.7041E-04  3.3781E-03  3.3889E-03   85.423
    30    6   0.0000   0.0827  -0.1034  0.04136   2.2412E-04  3.1002E-03  3.1083E-03   85.865
    31    7   0.0000  -0.1034  -0.0827  0.04136  -1.4651E-04 -2.6637E-03  2.6677E-03  -93.148
[...]
    37    8   0.0000   0.1493  -0.0597  0.05971   1.7650E-04 -1.9316E-04  2.6165E-04  -47.581
    38    8   0.0000   0.1493   0.0000  0.05971  -2.4941E-05  1.2940E-03  1.2942E-03   91.104
    39    8   0.0000   0.1493   0.0597  0.05971  -2.3295E-04  2.6051E-03  2.6155E-03   95.110
    40    8   0.0000   0.1493   0.1194  0.05971  -4.2709E-04  3.5739E-03  3.5993E-03   96.815
    41    9   0.1791  -0.1127   0.1409  0.05636   1.1819E-05  3.3252E-03  3.3252E-03   89.796
    42    9   0.1791  -0.0564   0.1409  0.05636   1.6522E-05  3.8721E-03  3.8721E-03   89.756
    43    9   0.1791   0.0000   0.1409  0.05636   1.7509E-05  4.0634E-03  4.0634E-03   89.753
    44    9   0.1791   0.0564   0.1409  0.05636   1.6522E-05  3.8721E-03  3.8721E-03   89.756
    45    9   0.1791   0.1127   0.1409  0.05636   1.1819E-05  3.3252E-03  3.3252E-03   89.796
    46   10   0.1791  -0.1127  -0.1409  0.05636  -8.5483E-05  3.1544E-03  3.1556E-03   91.552
    47   10   0.1791  -0.0564  -0.1409  0.05636  -9.7014E-05  3.7359E-03  3.7372E-03   91.488
    48   10   0.1791   0.0000  -0.1409  0.05636  -1.0158E-04  3.9420E-03  3.9433E-03   91.476
    49   10   0.1791   0.0564  -0.1409  0.05636  -9.7014E-05  3.7359E-03  3.7372E-03   91.488
    50   10   0.1791   0.1127  -0.1409  0.05636  -8.5483E-05  3.1544E-03  3.1556E-03   91.552
    51   11   0.1791  -0.1409  -0.1127  0.05636   7.1696E-05 -2.2847E-03  2.2858E-03  -88.203
    52   11   0.1791  -0.1409  -0.0564  0.05636   5.0835E-05 -1.1518E-03  1.1529E-03  -87.473
    53   11   0.1791  -0.1409   0.0000  0.05636   2.7784E-05  1.2459E-04  1.2765E-04   77.428
    54   11   0.1791  -0.1409   0.0564  0.05636   9.2433E-06  1.3887E-03  1.3888E-03   89.619
    55   11   0.1791  -0.1409   0.1127  0.05636   2.3481E-06  2.4905E-03  2.4905E-03   89.946
    56   12   0.1791   0.1409  -0.1127  0.05636  -7.1696E-05  2.2847E-03  2.2858E-03   91.797
    57   12   0.1791   0.1409  -0.0564  0.05636  -5.0835E-05  1.1518E-03  1.1529E-03   92.527
    58   12   0.1791   0.1409   0.0000  0.05636  -2.7784E-05 -1.2459E-04  1.2765E-04 -102.572
    59   12   0.1791   0.1409   0.0564  0.05636  -9.2433E-06 -1.3887E-03  1.3888E-03  -90.381
    60   12   0.1791   0.1409   0.1127  0.05636  -2.3481E-06 -2.4905E-03  2.4905E-03  -90.054



                                        - - - POWER BUDGET - - -

                                           INPUT POWER   = 3.6876E-04 WATTS
                                           RADIATED POWER= 3.6876E-04 WATTS
                                           STRUCTURE LOSS= 0.0000E+00 WATTS
                                           NETWORK LOSS  = 0.0000E+00 WATTS
                                           EFFICIENCY    = 100.00 PERCENT



                                                - - - RADIATION PATTERNS - - -

  - - ANGLES - -           - POWER GAINS -       - - - POLARIZATION - - -    - - - E(THETA) - - -    - - - E(PHI) - - -
  THETA     PHI        VERT.   HOR.    TOTAL      AXIAL     TILT   SENSE     MAGNITUDE    PHASE      MAGNITUDE    PHASE 
 DEGREES  DEGREES       DB      DB      DB        RATIO     DEG.              VOLTS/M    DEGREES      VOLTS/M    DEGREES
   90.00     0.00    -144.72    3.80    3.80    0.00000   -90.00  LINEAR    8.63753E-09    -8.75    2.30262E-01   175.97




                                 - - - - - - FREQUENCY - - - - - -

                                    FREQUENCY= 3.5900E+02 MHZ
                                    WAVELENGTH= 8.3510E-01 METERS




                    APPROXIMATE INTEGRATION EMPLOYED FOR SEGMENTS MORE THAN   1.000 WAVELENGTHS APART



                               - - - STRUCTURE IMPEDANCE LOADING - - -

                                   THIS STRUCTURE IS NOT LOADED



                                  - - - ANTENNA ENVIRONMENT - - -

                                            FREE SPACE



                                - - - MATRIX TIMING - - -

                        FILL=    0.060 SEC.,  FACTOR=    0.000 SEC.



                                          - - - ANTENNA INPUT PARAMETERS - - -

   TAG   SEG.    VOLTAGE (VOLTS)         CURRENT (AMPS)         IMPEDANCE (OHMS)        ADMITTANCE (MHOS)      POWER
   NO.   NO.    REAL        IMAG.       REAL        IMAG.       REAL        IMAG.       REAL        IMAG.     (WATTS)
     5    23 1.00000E+00 0.00000E+00 7.33582E-04-2.95997E-03 7.88834E+01 3.18291E+02 7.33582E-04-2.95997E-03 3.66791E-04



                             - - - CURRENTS AND LOCATION - - -

                                 DISTANCES IN WAVELENGTHS


  SEG.  TAG    COORD. OF SEG. CENTER     SEG.            - - - CURRENT (AMPS) - - -
  NO.   NO.     X        Y        Z      LENGTH     REAL        IMAG.       MAG.        PHASE
     1    1  -0.1796  -0.1255   0.1569  0.06275   7.9607E-04  1.9276E-03  2.0855E-03   67.560
     2    1  -0.1796  -0.0627   0.1569  0.06275   9.3667E-04  2.2060E-03  2.3966E-03   66.994
     3    1  -0.1796   0.0000   0.1569  0.06275   9.8581E-04  2.3050E-03  2.5069E-03   66.844
     4    1  -0.1796   0.0627   0.1569  0.06275   9.3667E-04  2.2060E-03  2.3966E-03   66.994
     5    1  -0.1796   0.1255   0.1569  0.06275   7.9607E-04  1.9276E-03  2.0855E-03   67.560
     6    2  -0.1796  -0.1255  -0.1569  0.06275   6.9078E-04  1.7618E-03  1.8924E-03   68.591
     7    2  -0.1796  -0.0627  -0.1569  0.06275   8.0762E-04  2.0853E-03  2.2362E-03   68.829
     8    2  -0.1796   0.0000  -0.1569  0.06275   8.4858E-04  2.2043E-03  2.3620E-03   68.945
     9    2  -0.1796   0.0627  -0.1569  0.06275   8.0762E-04  2.0853E-03  2.2362E-03   68.829
    10    2  -0.1796   0.1255  -0.1569  0.06275   6.9078E-04  1.7618E-03  1.8924E-03   68.591
    11    3  -0.1796  -0.1569  -0.1255  0.06275  -5.1189E-04 -1.3033E-03  1.4002E-03 -111.443
    12    3  -0.1796  -0.1569  -0.0627  0.06275  -2.6662E-04 -6.4221E-04  6.9535E-04 -112.546
    13    3  -0.1796  -0.1569   0.0000  0.06275   2.1824E-05  1.3127E-04  1.3307E-04   80.561
    14    3  -0.1796  -0.1569   0.0627  0.06275   3.1719E-04  8.8907E-04  9.4396E-04   70.365
    15    3  -0.1796  -0.1569   0.1255  0.06275   5.8348E-04  1.5112E-03  1.6200E-03   68.889
    16    4  -0.1796   0.1569  -0.1255  0.06275   5.1189E-04  1.3033E-03  1.4002E-03   68.557
    17    4  -0.1796   0.1569  -0.0627  0.06275   2.6662E-04  6.4221E-04  6.9535E-04   67.454
    18    4  -0.1796   0.1569   0.0000  0.06275  -2.1824E-05 -1.3127E-04  1.3307E-04  -99.439
    19    4  -0.1796   0.1569   0.0627  0.06275  -3.1719E-04 -8.8907E-04  9.4396E-04 -109.635
    20    4  -0.1796   0.1569   0.1255  0.06275  -5.8348E-04 -1.5112E-03  1.6200E-03 -111.111
    21    5   0.0000  -0.1197   0.1497  0.05987   5.8923E-04 -3.9786E-03  4.0220E-03  -81.576
    22    5   0.0000  -0.0599   0.1497  0.05987   6.9659E-04 -3.7769E-03  3.8406E-03  -79.550
    23    5   0.0000   0.0000   0.1497  0.05987   7.3358E-04 -2.9600E-03  3.0495E-03  -76.081
    24    5   0.0000   0.0599   0.1497  0.05987   6.9659E-04 -3.7769E-03  3.8406E-03  -79.550
    25    5   0.0000   0.1197   0.1497  0.05987   5.8923E-04 -3.9786E-03  4.0220E-03  -81.576
    26    6   0.0000  -0.1197  -0.1497  0.05987   4.7852E-04 -2.8057E-03  2.8462E-03  -80.321
    27    6   0.0000  -0.0599  -0.1497  0.05987   5.6217E-04 -3.6340E-03  3.6772E-03  -81.206
    28    6   0.0000   0.0000  -0.1497  0.05987   5.9105E-04 -3.9279E-03  3.9721E-03  -81.443
    29    6   0.0000   0.0599  -0.1497  0.05987   5.6217E-04 -3.6340E-03  3.6772E-03  -81.206
    30    6   0.0000   0.1197  -0.1497  0.05987   4.7852E-04 -2.8057E-03  2.8462E-03  -80.321
    31    7   0.0000  -0.1497  -0.1197  0.05987  -3.4747E-04  1.5835E-03  1.6212E-03  102.376
    32    7   0.0000  -0.1497  -0.0599  0.05987  -1.7512E-04  1.5306E-04  2.3259E-04  138.845
    33    7   0.0000  -0.1497   0.0000  0.05987   2.4647E-05 -1.2957E-03  1.2960E-03  -88.910
    34    7   0.0000  -0.1497   0.0599  0.05987   2.3114E-04 -2.5673E-03  2.5777E-03  -84.855
    35    7   0.0000  -0.1497   0.1197  0.05987   4.2419E-04 -3.4999E-03  3.5255E-03  -83.089
    36    8   0.0000   0.1497  -0.1197  0.05987   3.4747E-04 -1.5835E-03  1.6212E-03  -77.624
    37    8   0.0000   0.1497  -0.0599  0.05987   1.7512E-04 -1.5306E-04  2.3259E-04  -41.155
    38    8   0.0000   0.1497   0.0000  0.05987  -2.4647E-05  1.2957E-03  1.2960E-03   91.090
    39    8   0.0000   0.1497   0.0599  0.05987  -2.3114E-04  2.5673E-03  2.5777E-03   95.145
    40    8   0.0000   0.1497   0.1197  0.05987  -4.2419E-04  3.4999E-03  3.5255E-03   96.911
    41    9   0.1796  -0.1130   0.1413  0.05652   5.7438E-05  3.2547E-03  3.2552E-03   88.989
    42    9   0.1796  -0.0565   0.1413  0.05652   7.0300E-05  3.7886E-03  3.7892E-03   88.937
    43    9   0.1796   0.0000   0.1413  0.05652   7.4135E-05  3.9753E-03  3.9760E-03   88.932
    44    9   0.1796   0.0565   0.1413  0.05652   7.0300E-05  3.7886E-03  3.7892E-03   88.937
    45    9   0.1796   0.1130   0.1413  0.05652   5.7438E-05  3.2547E-03  3.2552E-03   88.989
    46   10   0.1796  -0.1130  -0.1413  0.05652  -4.0347E-05  3.0846E-03  3.0848E-03   90.749
    47   10   0.1796  -0.0565  -0.1413  0.05652  -4.4024E-05  3.6533E-03  3.6536E-03   90.690
    48   10   0.1796   0.0000  -0.1413  0.05652  -4.5843E-05  3.8549E-03  3.8552E-03   90.681
    49   10   0.1796   0.0565  -0.1413  0.05652  -4.4024E-05  3.6533E-03  3.6536E-03   90.690
    50   10   0.1796   0.1130  -0.1413  0.05652  -4.0347E-05  3.0846E-03  3.0848E-03   90.749
    51   11   0.1796  -0.1413  -0.1130  0.05652   3.8578E-05 -2.2343E-03  2.2347E-03  -89.011
    52   11   0.1796  -0.1413  -0.0565  0.05652   3.3179E-05 -1.1254E-03  1.1259E-03  -88.311
    53   11   0.1796  -0.1413   0.0000  0.05652   2.7611E-05  1.2458E-04  1.2761E-04   77.503
    54   11   0.1796  -0.1413   0.0565  0.05652   2.6651E-05  1.3623E-03  1.3625E-03   88.879
    55   11   0.1796  -0.1413   0.1130  0.05652   3.5503E-05  2.4399E-03  2.4401E-03   89.166
    56   12   0.1796   0.1413  -0.1130  0.05652  -3.8578E-05  2.2343E-03  2.2347E-03   90.989
    57   12   0.1796   0.1413  -0.0565  0.05652  -3.3179E-05  1.1254E-03  1.1259E-03   91.689
    58   12   0.1796   0.1413   0.0000  0.05652  -2.7611E-05 -1.2458E-04  1.2761E-04 -102.497
    59   12   0.1796   0.1413   0.0565  0.05652  -2.6651E-05 -1.3623E-03  1.3625E-03  -91.121
    60   12   0.1796   0.1413   0.1130  0.05652  -3.5503E-05 -2.4399E-03  2.4401E-03  -90.834



                                        - - - POWER BUDGET - - -

                                           INPUT POWER   = 3.6679E-04 WATTS
                                           RADIATED POWER= 3.6679E-04 WATTS
                                           STRUCTURE LOSS= 0.0000E+00 WATTS
                                           NETWORK LOSS  = 0.0000E+00 WATTS
                                           EFFICIENCY    = 100.00 PERCENT



                                                - - - RADIATION PATTERNS - - -

  - - ANGLES - -           - POWER GAINS -       - - - POLARIZATION - - -    - - - E(THETA) - - -    - - - E(PHI) - - -
  THETA     PHI        VERT.   HOR.    TOTAL      AXIAL     TILT   SENSE     MAGNITUDE    PHASE      MAGNITUDE    PHASE 
 DEGREES  DEGREES       DB      DB      DB        RATIO     DEG.              VOLTS/M    DEGREES      VOLTS/M    DEGREES
   90.00     0.00    -145.06    3.42    3.42    0.00000   -90.00  LINEAR    8.28357E-09    -8.23    2.19942E-01   176.91




                                 - - - - - - FREQUENCY - - - - - -

                                    FREQUENCY= 3.6000E+02 MHZ
                                    WAVELENGTH= 8.3278E-01 METERS




                    APPROXIMATE INTEGRATION EMPLOYED FOR SEGMENTS MORE THAN   1.000 WAVELENGTHS APART



                               - - - STRUCTURE IMPEDANCE LOADING - - -

                                   THIS STRUCTURE IS NOT LOADED



                                  - - - ANTENNA ENVIRONMENT - - -

                                            FREE SPACE



                                - - - MATRIX TIMING - - -

                        FILL=    0.050 SEC.,  FACTOR=    0.000 SEC.



                                          - - - ANTENNA INPUT PARAMETERS - - -

   TAG   SEG.    VOLTAGE (VOLTS)         CURRENT (AMPS)         IMPEDANCE (OHMS)        ADMITTANCE (MHOS)      POWER
   NO.   NO.    REAL        IMAG.       REAL        IMAG.       REAL        IMAG.       REAL        IMAG.     (WATTS)
     5    23 1.00000E+00 0.00000E+00 7.31203E-04-2.83238E-03 8.54505E+01 3.31000E+02 7.31203E-04-2.83238E-03 3.65601E-04



                             - - - CURRENTS AND LOCATION - - -

                                 DISTANCES IN WAVELENGTHS


  SEG.  TAG    COORD. OF SEG. CENTER     SEG.            - - - CURRENT (AMPS) - - -
  NO.   NO.     X        Y        Z      LENGTH     REAL        IMAG.       MAG.        PHASE
     1    1  -0.1801  -0.1258   0.1573  0.06292   7.9145E-04  1.8937E-03  2.0524E-03   67.318
     2    1  -0.1801  -0.0629   0.1573  0.06292   9.3134E-04  2.1656E-03  2.3574E-03   66.730
     3    1  -0.1801   0.0000   0.1573  0.06292   9.8024E-04  2.2623E-03  2.4655E-03   66.573
     4    1  -0.1801   0.0629   0.1573  0.06292   9.3134E-04  2.1656E-03  2.3574E-03   66.730
     5    1  -0.1801   0.1258   0.1573  0.06292   7.9145E-04  1.8937E-03  2.0524E-03   67.318
     6    2  -0.1801  -0.1258  -0.1573  0.06292   6.8558E-04  1.7285E-03  1.8595E-03   68.365
     7    2  -0.1801  -0.0629  -0.1573  0.06292   8.0125E-04  2.0460E-03  2.1973E-03   68.614
     8    2  -0.1801   0.0000  -0.1573  0.06292   8.4181E-04  2.1628E-03  2.3209E-03   68.733
     9    2  -0.1801   0.0629  -0.1573  0.06292   8.0125E-04  2.0460E-03  2.1973E-03   68.614
    10    2  -0.1801   0.1258  -0.1573  0.06292   6.8558E-04  1.7285E-03  1.8595E-03   68.365
    11    3  -0.1801  -0.1573  -0.1258  0.06292  -5.0852E-04 -1.2786E-03  1.3760E-03 -111.688
    12    3  -0.1801  -0.1573  -0.0629  0.06292  -2.6515E-04 -6.2897E-04  6.8257E-04 -112.858
    13    3  -0.1801  -0.1573   0.0000  0.06292   2.1481E-05  1.3138E-04  1.3313E-04   80.714
    14    3  -0.1801  -0.1573   0.0629  0.06292   3.1519E-04  8.7592E-04  9.3091E-04   70.209
    15    3  -0.1801  -0.1573   0.1258  0.06292   5.8002E-04  1.4863E-03  1.5955E-03   68.682
    16    4  -0.1801   0.1573  -0.1258  0.06292   5.0852E-04  1.2786E-03  1.3760E-03   68.312
    17    4  -0.1801   0.1573  -0.0629  0.06292   2.6515E-04  6.2897E-04  6.8257E-04   67.142
    18    4  -0.1801   0.1573   0.0000  0.06292  -2.1481E-05 -1.3138E-04  1.3313E-04  -99.286
    19    4  -0.1801   0.1573   0.0629  0.06292  -3.1519E-04 -8.7592E-04  9.3091E-04 -109.791
    20    4  -0.1801   0.1573   0.1258  0.06292  -5.8002E-04 -1.4863E-03  1.5955E-03 -111.318
    21    5   0.0000  -0.1201   0.1501  0.06004   5.8715E-04 -3.8807E-03  3.9249E-03  -81.397
    22    5   0.0000  -0.0600   0.1501  0.06004   6.9431E-04 -3.6587E-03  3.7240E-03  -79.255
    23    5   0.0000   0.0000   0.1501  0.06004   7.3120E-04 -2.8324E-03  2.9252E-03  -75.525
    24    5   0.0000   0.0600   0.1501  0.06004   6.9431E-04 -3.6587E-03  3.7240E-03  -79.255
    25    5   0.0000   0.1201   0.1501  0.06004   5.8715E-04 -3.8807E-03  3.9249E-03  -81.397
    26    6   0.0000  -0.1201  -0.1501  0.06004   4.7572E-04 -2.7135E-03  2.7549E-03  -80.056
    27    6   0.0000  -0.0600  -0.1501  0.06004   5.5869E-04 -3.5267E-03  3.5707E-03  -80.998
    28    6   0.0000   0.0000  -0.1501  0.06004   5.8729E-04 -3.8152E-03  3.8602E-03  -81.249
    29    6   0.0000   0.0600  -0.1501  0.06004   5.5869E-04 -3.5267E-03  3.5707E-03  -80.998
    30    6   0.0000   0.1201  -0.1501  0.06004   4.7572E-04 -2.7135E-03  2.7549E-03  -80.056
    31    7   0.0000  -0.1501  -0.1201  0.06004  -3.4551E-04  1.5143E-03  1.5532E-03  102.853
    32    7   0.0000  -0.1501  -0.0600  0.06004  -1.7427E-04  1.1492E-04  2.0875E-04  146.597
    33    7   0.0000  -0.1501   0.0000  0.06004   2.4343E-05 -1.2975E-03  1.2977E-03  -88.925
    34    7   0.0000  -0.1501   0.0600  0.06004   2.2983E-04 -2.5315E-03  2.5419E-03  -84.812
    35    7   0.0000  -0.1501   0.1201  0.06004   4.2224E-04 -3.4296E-03  3.4555E-03  -82.981
    36    8   0.0000   0.1501  -0.1201  0.06004   3.4551E-04 -1.5143E-03  1.5532E-03  -77.147
    37    8   0.0000   0.1501  -0.0600  0.06004   1.7427E-04 -1.1492E-04  2.0875E-04  -33.403
    38    8   0.0000   0.1501   0.0000  0.06004  -2.4343E-05  1.2975E-03  1.2977E-03   91.075
    39    8   0.0000   0.1501   0.0600  0.06004  -2.2983E-04  2.5315E-03  2.5419E-03   95.188
    40    8   0.0000   0.1501   0.1201  0.06004  -4.2224E-04  3.4296E-03  3.4555E-03   97.019
    41    9   0.1801  -0.1134   0.1417  0.05668   1.0023E-04  3.1872E-03  3.1888E-03   88.199
    42    9   0.1801  -0.0567   0.1417  0.05668   1.2074E-04  3.7085E-03  3.7105E-03   88.135
    43    9   0.1801   0.0000   0.1417  0.05668   1.2724E-04  3.8909E-03  3.8930E-03   88.127
    44    9   0.1801   0.0567   0.1417  0.05668   1.2074E-04  3.7085E-03  3.7105E-03   88.135
    45    9   0.1801   0.1134   0.1417  0.05668   1.0023E-04  3.1872E-03  3.1888E-03   88.199
    46   10   0.1801  -0.1134  -0.1417  0.05668   1.9532E-06  3.0176E-03  3.0176E-03   89.963
    47   10   0.1801  -0.0567  -0.1417  0.05668   5.6143E-06  3.5741E-03  3.5741E-03   89.910
    48   10   0.1801   0.0000  -0.1417  0.05668   6.3598E-06  3.7714E-03  3.7714E-03   89.903
    49   10   0.1801   0.0567  -0.1417  0.05668   5.6143E-06  3.5741E-03  3.5741E-03   89.910
    50   10   0.1801   0.1134  -0.1417  0.05668   1.9532E-06  3.0176E-03  3.0176E-03   89.963
    51   11   0.1801  -0.1417  -0.1134  0.05668   7.5015E-06 -2.1861E-03  2.1861E-03  -89.803
    52   11   0.1801  -0.1417  -0.0567  0.05668   1.6589E-05 -1.1001E-03  1.1003E-03  -89.136
    53   11   0.1801  -0.1417   0.0000  0.05668   2.7433E-05  1.2458E-04  1.2757E-04   77.582
    54   11   0.1801  -0.1417   0.0567  0.05668   4.2981E-05  1.3369E-03  1.3376E-03   88.159
    55   11   0.1801  -0.1417   0.1134  0.05668   6.6612E-05  2.3913E-03  2.3922E-03   88.404
    56   12   0.1801   0.1417  -0.1134  0.05668  -7.5015E-06  2.1861E-03  2.1861E-03   90.197
    57   12   0.1801   0.1417  -0.0567  0.05668  -1.6589E-05  1.1001E-03  1.1003E-03   90.864
    58   12   0.1801   0.1417   0.0000  0.05668  -2.7433E-05 -1.2458E-04  1.2757E-04 -102.418
    59   12   0.1801   0.1417   0.0567  0.05668  -4.2981E-05 -1.3369E-03  1.3376E-03  -91.841
    60   12   0.1801   0.1417   0.1134  0.05668  -6.6612E-05 -2.3913E-03  2.3922E-03  -91.596



                                        - - - POWER BUDGET - - -

                                           INPUT POWER   = 3.6560E-04 WATTS
                                           RADIATED POWER= 3.6560E-04 WATTS
                                           STRUCTURE LOSS= 0.0000E+00 WATTS
                                           NETWORK LOSS  = 0.0000E+00 WATTS
                                           EFFICIENCY    = 100.00 PERCENT



                                                - - - RADIATION PATTERNS - - -

  - - ANGLES - -           - POWER GAINS -       - - - POLARIZATION - - -    - - - E(THETA) - - -    - - - E(PHI) - - -
  THETA     PHI        VERT.   HOR.    TOTAL      AXIAL     TILT   SENSE     MAGNITUDE    PHASE      MAGNITUDE    PHASE 
 DEGREES  DEGREES       DB      DB      DB        RATIO     DEG.              VOLTS/M    DEGREES      VOLTS/M    DEGREES
   90.00     0.00    -145.40    3.05    3.05    0.00000   -90.00  LINEAR    7.95124E-09    -7.64    2.10331E-01   177.94
 ***** DATA CARD NO.  4   EN   0     0     0     0  0.00000E+00  0.00000E+00  0.00000E+00  0.00000E+00  0.00000E+00  0.00000E+00

 RUN TIME =     5.050
