1



                                 *********************************************

                                    NUMERICAL ELECTROMAGNETICS CODE (NEC-2D)

                                 *********************************************




                                     - - - - COMMENTS - - - -


                          ECE 6370 Homework 9                                                        
                          Caitlyn Caggia                                                             
                          Yagi Uda Array with 10 Elements                                            
                          File Generated by MatLab                                                   




                                 - - - STRUCTURE SPECIFICATION - - -

                                     COORDINATES MUST BE INPUT IN
                                     METERS OR BE SCALED TO METERS
                                     BEFORE STRUCTURE INPUT IS ENDED


  WIRE                                                                               NO. OF    FIRST  LAST     TAG
  NO.        X1         Y1         Z1          X2         Y2         Z2      RADIUS   SEG.     SEG.   SEG.     NO.
     1   -0.06680    0.01760    0.02160    -0.06680    0.01760   -0.02160    0.00150      5        1     5       1
     2   -0.06680    0.01760   -0.02160    -0.06680   -0.01760   -0.02160    0.00150      5        6    10       2
     3   -0.06680   -0.01760    0.02160    -0.06680    0.01760    0.02160    0.00150      5       11    15       3
     4   -0.06680   -0.01760   -0.02160    -0.06680   -0.01760    0.02160    0.00150      5       16    20       4
     5    0.00000    0.01670    0.02590     0.00000    0.01670   -0.02590    0.00050      5       21    25       5
     6    0.00000    0.01670   -0.02590     0.00000   -0.01670   -0.02590    0.00050      5       26    30       6
     7    0.00000   -0.01670    0.02590     0.00000    0.01670    0.02590    0.00050      5       31    35       7
     8    0.00000   -0.01670   -0.02590     0.00000   -0.01670    0.02590    0.00050      5       36    40       8
     9    0.04350    0.01550    0.02660     0.04350    0.01550   -0.02660    0.00110      5       41    45       9
    10    0.04350    0.01550   -0.02660     0.04350   -0.01550   -0.02660    0.00110      5       46    50      10
    11    0.04350   -0.01550    0.02660     0.04350    0.01550    0.02660    0.00110      5       51    55      11
    12    0.04350   -0.01550   -0.02660     0.04350   -0.01550    0.02660    0.00110      5       56    60      12
    13    0.06850    0.01600    0.01440     0.06850    0.01600   -0.01440    0.00050      5       61    65      13
    14    0.06850    0.01600   -0.01440     0.06850   -0.01600   -0.01440    0.00050      5       66    70      14
    15    0.06850   -0.01600    0.01440     0.06850    0.01600    0.01440    0.00050      5       71    75      15
    16    0.06850   -0.01600   -0.01440     0.06850   -0.01600    0.01440    0.00050      5       76    80      16
    17    0.12480    0.01730    0.01860     0.12480    0.01730   -0.01860    0.00040      5       81    85      17
    18    0.12480    0.01730   -0.01860     0.12480   -0.01730   -0.01860    0.00040      5       86    90      18
    19    0.12480   -0.01730    0.01860     0.12480    0.01730    0.01860    0.00040      5       91    95      19
    20    0.12480   -0.01730   -0.01860     0.12480   -0.01730    0.01860    0.00040      5       96   100      20
    21    0.18110    0.01910    0.02140     0.18110    0.01910   -0.02140    0.00130      5      101   105      21
    22    0.18110    0.01910   -0.02140     0.18110   -0.01910   -0.02140    0.00130      5      106   110      22
    23    0.18110   -0.01910    0.02140     0.18110    0.01910    0.02140    0.00130      5      111   115      23
    24    0.18110   -0.01910   -0.02140     0.18110   -0.01910    0.02140    0.00130      5      116   120      24
    25    0.22800    0.00630    0.01830     0.22800    0.00630   -0.01830    0.00020      5      121   125      25
    26    0.22800    0.00630   -0.01830     0.22800   -0.00630   -0.01830    0.00020      5      126   130      26
    27    0.22800   -0.00630    0.01830     0.22800    0.00630    0.01830    0.00020      5      131   135      27
    28    0.22800   -0.00630   -0.01830     0.22800   -0.00630    0.01830    0.00020      5      136   140      28
    29    0.31080    0.01330    0.03400     0.31080    0.01330   -0.03400    0.00020      5      141   145      29
    30    0.31080    0.01330   -0.03400     0.31080   -0.01330   -0.03400    0.00020      5      146   150      30
    31    0.31080   -0.01330    0.03400     0.31080    0.01330    0.03400    0.00020      5      151   155      31
    32    0.31080   -0.01330   -0.03400     0.31080   -0.01330    0.03400    0.00020      5      156   160      32
    33    0.37710    0.01330    0.00950     0.37710    0.01330   -0.00950    0.00150      5      161   165      33
    34    0.37710    0.01330   -0.00950     0.37710   -0.01330   -0.00950    0.00150      5      166   170      34
    35    0.37710   -0.01330    0.00950     0.37710    0.01330    0.00950    0.00150      5      171   175      35
    36    0.37710   -0.01330   -0.00950     0.37710   -0.01330    0.00950    0.00150      5      176   180      36
    37    0.40220    0.01520    0.03430     0.40220    0.01520   -0.03430    0.00070      5      181   185      37
    38    0.40220    0.01520   -0.03430     0.40220   -0.01520   -0.03430    0.00070      5      186   190      38
    39    0.40220   -0.01520    0.03430     0.40220    0.01520    0.03430    0.00070      5      191   195      39
    40    0.40220   -0.01520   -0.03430     0.40220   -0.01520    0.03430    0.00070      5      196   200      40

   TOTAL SEGMENTS USED=  200     NO. SEG. IN A SYMMETRIC CELL=  200     SYMMETRY FLAG=  0


         - MULTIPLE WIRE JUNCTIONS -
 JUNCTION    SEGMENTS  (- FOR END 1, + FOR END 2)
  NONE




                                 - - - - SEGMENTATION DATA - - - -

                                        COORDINATES IN METERS

                         I+ AND I- INDICATE THE SEGMENTS BEFORE AND AFTER I


  SEG.   COORDINATES OF SEG. CENTER     SEG.     ORIENTATION ANGLES    WIRE    CONNECTION DATA   TAG
  NO.       X         Y         Z       LENGTH     ALPHA     BETA      RADIUS    I-   I    I+    NO.
     1  -0.06680   0.01760   0.01728   0.00864  -90.00000   0.00000   0.00150    15    1    2      1
     2  -0.06680   0.01760   0.00864   0.00864  -90.00000   0.00000   0.00150     1    2    3      1
     3  -0.06680   0.01760   0.00000   0.00864  -90.00000   0.00000   0.00150     2    3    4      1
     4  -0.06680   0.01760  -0.00864   0.00864  -90.00000   0.00000   0.00150     3    4    5      1
     5  -0.06680   0.01760  -0.01728   0.00864  -90.00000   0.00000   0.00150     4    5    6      1
     6  -0.06680   0.01408  -0.02160   0.00704    0.00000 -90.00000   0.00150     5    6    7      2
     7  -0.06680   0.00704  -0.02160   0.00704    0.00000 -90.00000   0.00150     6    7    8      2
     8  -0.06680   0.00000  -0.02160   0.00704    0.00000 -90.00000   0.00150     7    8    9      2
     9  -0.06680  -0.00704  -0.02160   0.00704    0.00000 -90.00000   0.00150     8    9   10      2
    10  -0.06680  -0.01408  -0.02160   0.00704    0.00000 -90.00000   0.00150     9   10   16      2
    11  -0.06680  -0.01408   0.02160   0.00704    0.00000  90.00000   0.00150    20   11   12      3
    12  -0.06680  -0.00704   0.02160   0.00704    0.00000  90.00000   0.00150    11   12   13      3
    13  -0.06680   0.00000   0.02160   0.00704    0.00000  90.00000   0.00150    12   13   14      3
    14  -0.06680   0.00704   0.02160   0.00704    0.00000  90.00000   0.00150    13   14   15      3
    15  -0.06680   0.01408   0.02160   0.00704    0.00000  90.00000   0.00150    14   15    1      3
    16  -0.06680  -0.01760  -0.01728   0.00864   90.00000   0.00000   0.00150    10   16   17      4
    17  -0.06680  -0.01760  -0.00864   0.00864   90.00000   0.00000   0.00150    16   17   18      4
    18  -0.06680  -0.01760   0.00000   0.00864   90.00000   0.00000   0.00150    17   18   19      4
    19  -0.06680  -0.01760   0.00864   0.00864   90.00000   0.00000   0.00150    18   19   20      4
    20  -0.06680  -0.01760   0.01728   0.00864   90.00000   0.00000   0.00150    19   20   11      4
    21   0.00000   0.01670   0.02072   0.01036  -90.00000   0.00000   0.00050    35   21   22      5
    22   0.00000   0.01670   0.01036   0.01036  -90.00000   0.00000   0.00050    21   22   23      5
    23   0.00000   0.01670   0.00000   0.01036  -90.00000   0.00000   0.00050    22   23   24      5
    24   0.00000   0.01670  -0.01036   0.01036  -90.00000   0.00000   0.00050    23   24   25      5
    25   0.00000   0.01670  -0.02072   0.01036  -90.00000   0.00000   0.00050    24   25   26      5
    26   0.00000   0.01336  -0.02590   0.00668    0.00000 -90.00000   0.00050    25   26   27      6
    27   0.00000   0.00668  -0.02590   0.00668    0.00000 -90.00000   0.00050    26   27   28      6
    28   0.00000   0.00000  -0.02590   0.00668    0.00000 -90.00000   0.00050    27   28   29      6
    29   0.00000  -0.00668  -0.02590   0.00668    0.00000 -90.00000   0.00050    28   29   30      6
    30   0.00000  -0.01336  -0.02590   0.00668    0.00000 -90.00000   0.00050    29   30   36      6
    31   0.00000  -0.01336   0.02590   0.00668    0.00000  90.00000   0.00050    40   31   32      7
    32   0.00000  -0.00668   0.02590   0.00668    0.00000  90.00000   0.00050    31   32   33      7
    33   0.00000   0.00000   0.02590   0.00668    0.00000  90.00000   0.00050    32   33   34      7
    34   0.00000   0.00668   0.02590   0.00668    0.00000  90.00000   0.00050    33   34   35      7
    35   0.00000   0.01336   0.02590   0.00668    0.00000  90.00000   0.00050    34   35   21      7
    36   0.00000  -0.01670  -0.02072   0.01036   90.00000   0.00000   0.00050    30   36   37      8
    37   0.00000  -0.01670  -0.01036   0.01036   90.00000   0.00000   0.00050    36   37   38      8
    38   0.00000  -0.01670   0.00000   0.01036   90.00000   0.00000   0.00050    37   38   39      8
    39   0.00000  -0.01670   0.01036   0.01036   90.00000   0.00000   0.00050    38   39   40      8
    40   0.00000  -0.01670   0.02072   0.01036   90.00000   0.00000   0.00050    39   40   31      8
    41   0.04350   0.01550   0.02128   0.01064  -90.00000   0.00000   0.00110    55   41   42      9
    42   0.04350   0.01550   0.01064   0.01064  -90.00000   0.00000   0.00110    41   42   43      9
    43   0.04350   0.01550   0.00000   0.01064  -90.00000   0.00000   0.00110    42   43   44      9
    44   0.04350   0.01550  -0.01064   0.01064  -90.00000   0.00000   0.00110    43   44   45      9
    45   0.04350   0.01550  -0.02128   0.01064  -90.00000   0.00000   0.00110    44   45   46      9
    46   0.04350   0.01240  -0.02660   0.00620    0.00000 -90.00000   0.00110    45   46   47     10
    47   0.04350   0.00620  -0.02660   0.00620    0.00000 -90.00000   0.00110    46   47   48     10
    48   0.04350   0.00000  -0.02660   0.00620    0.00000 -90.00000   0.00110    47   48   49     10
    49   0.04350  -0.00620  -0.02660   0.00620    0.00000 -90.00000   0.00110    48   49   50     10
    50   0.04350  -0.01240  -0.02660   0.00620    0.00000 -90.00000   0.00110    49   50   56     10
    51   0.04350  -0.01240   0.02660   0.00620    0.00000  90.00000   0.00110    60   51   52     11
    52   0.04350  -0.00620   0.02660   0.00620    0.00000  90.00000   0.00110    51   52   53     11
    53   0.04350   0.00000   0.02660   0.00620    0.00000  90.00000   0.00110    52   53   54     11
    54   0.04350   0.00620   0.02660   0.00620    0.00000  90.00000   0.00110    53   54   55     11
    55   0.04350   0.01240   0.02660   0.00620    0.00000  90.00000   0.00110    54   55   41     11
    56   0.04350  -0.01550  -0.02128   0.01064   90.00000   0.00000   0.00110    50   56   57     12
    57   0.04350  -0.01550  -0.01064   0.01064   90.00000   0.00000   0.00110    56   57   58     12
    58   0.04350  -0.01550   0.00000   0.01064   90.00000   0.00000   0.00110    57   58   59     12
    59   0.04350  -0.01550   0.01064   0.01064   90.00000   0.00000   0.00110    58   59   60     12
    60   0.04350  -0.01550   0.02128   0.01064   90.00000   0.00000   0.00110    59   60   51     12
    61   0.06850   0.01600   0.01152   0.00576  -90.00000   0.00000   0.00050    75   61   62     13
    62   0.06850   0.01600   0.00576   0.00576  -90.00000   0.00000   0.00050    61   62   63     13
    63   0.06850   0.01600   0.00000   0.00576  -90.00000   0.00000   0.00050    62   63   64     13
    64   0.06850   0.01600  -0.00576   0.00576  -90.00000   0.00000   0.00050    63   64   65     13
    65   0.06850   0.01600  -0.01152   0.00576  -90.00000   0.00000   0.00050    64   65   66     13
    66   0.06850   0.01280  -0.01440   0.00640    0.00000 -90.00000   0.00050    65   66   67     14
    67   0.06850   0.00640  -0.01440   0.00640    0.00000 -90.00000   0.00050    66   67   68     14
    68   0.06850   0.00000  -0.01440   0.00640    0.00000 -90.00000   0.00050    67   68   69     14
    69   0.06850  -0.00640  -0.01440   0.00640    0.00000 -90.00000   0.00050    68   69   70     14
    70   0.06850  -0.01280  -0.01440   0.00640    0.00000 -90.00000   0.00050    69   70   76     14
    71   0.06850  -0.01280   0.01440   0.00640    0.00000  90.00000   0.00050    80   71   72     15
    72   0.06850  -0.00640   0.01440   0.00640    0.00000  90.00000   0.00050    71   72   73     15
    73   0.06850   0.00000   0.01440   0.00640    0.00000  90.00000   0.00050    72   73   74     15
    74   0.06850   0.00640   0.01440   0.00640    0.00000  90.00000   0.00050    73   74   75     15
    75   0.06850   0.01280   0.01440   0.00640    0.00000  90.00000   0.00050    74   75   61     15
    76   0.06850  -0.01600  -0.01152   0.00576   90.00000   0.00000   0.00050    70   76   77     16
    77   0.06850  -0.01600  -0.00576   0.00576   90.00000   0.00000   0.00050    76   77   78     16
    78   0.06850  -0.01600   0.00000   0.00576   90.00000   0.00000   0.00050    77   78   79     16
    79   0.06850  -0.01600   0.00576   0.00576   90.00000   0.00000   0.00050    78   79   80     16
    80   0.06850  -0.01600   0.01152   0.00576   90.00000   0.00000   0.00050    79   80   71     16
    81   0.12480   0.01730   0.01488   0.00744  -90.00000   0.00000   0.00040    95   81   82     17
    82   0.12480   0.01730   0.00744   0.00744  -90.00000   0.00000   0.00040    81   82   83     17
    83   0.12480   0.01730   0.00000   0.00744  -90.00000   0.00000   0.00040    82   83   84     17
    84   0.12480   0.01730  -0.00744   0.00744  -90.00000   0.00000   0.00040    83   84   85     17
    85   0.12480   0.01730  -0.01488   0.00744  -90.00000   0.00000   0.00040    84   85   86     17
    86   0.12480   0.01384  -0.01860   0.00692    0.00000 -90.00000   0.00040    85   86   87     18
    87   0.12480   0.00692  -0.01860   0.00692    0.00000 -90.00000   0.00040    86   87   88     18
    88   0.12480   0.00000  -0.01860   0.00692    0.00000 -90.00000   0.00040    87   88   89     18
    89   0.12480  -0.00692  -0.01860   0.00692    0.00000 -90.00000   0.00040    88   89   90     18
    90   0.12480  -0.01384  -0.01860   0.00692    0.00000 -90.00000   0.00040    89   90   96     18
    91   0.12480  -0.01384   0.01860   0.00692    0.00000  90.00000   0.00040   100   91   92     19
    92   0.12480  -0.00692   0.01860   0.00692    0.00000  90.00000   0.00040    91   92   93     19
    93   0.12480   0.00000   0.01860   0.00692    0.00000  90.00000   0.00040    92   93   94     19
    94   0.12480   0.00692   0.01860   0.00692    0.00000  90.00000   0.00040    93   94   95     19
    95   0.12480   0.01384   0.01860   0.00692    0.00000  90.00000   0.00040    94   95   81     19
    96   0.12480  -0.01730  -0.01488   0.00744   90.00000   0.00000   0.00040    90   96   97     20
    97   0.12480  -0.01730  -0.00744   0.00744   90.00000   0.00000   0.00040    96   97   98     20
    98   0.12480  -0.01730   0.00000   0.00744   90.00000   0.00000   0.00040    97   98   99     20
    99   0.12480  -0.01730   0.00744   0.00744   90.00000   0.00000   0.00040    98   99  100     20
   100   0.12480  -0.01730   0.01488   0.00744   90.00000   0.00000   0.00040    99  100   91     20
   101   0.18110   0.01910   0.01712   0.00856  -90.00000   0.00000   0.00130   115  101  102     21
   102   0.18110   0.01910   0.00856   0.00856  -90.00000   0.00000   0.00130   101  102  103     21
   103   0.18110   0.01910   0.00000   0.00856  -90.00000   0.00000   0.00130   102  103  104     21
   104   0.18110   0.01910  -0.00856   0.00856  -90.00000   0.00000   0.00130   103  104  105     21
   105   0.18110   0.01910  -0.01712   0.00856  -90.00000   0.00000   0.00130   104  105  106     21
   106   0.18110   0.01528  -0.02140   0.00764    0.00000 -90.00000   0.00130   105  106  107     22
   107   0.18110   0.00764  -0.02140   0.00764    0.00000 -90.00000   0.00130   106  107  108     22
   108   0.18110   0.00000  -0.02140   0.00764    0.00000 -90.00000   0.00130   107  108  109     22
   109   0.18110  -0.00764  -0.02140   0.00764    0.00000 -90.00000   0.00130   108  109  110     22
   110   0.18110  -0.01528  -0.02140   0.00764    0.00000 -90.00000   0.00130   109  110  116     22
   111   0.18110  -0.01528   0.02140   0.00764    0.00000  90.00000   0.00130   120  111  112     23
   112   0.18110  -0.00764   0.02140   0.00764    0.00000  90.00000   0.00130   111  112  113     23
   113   0.18110   0.00000   0.02140   0.00764    0.00000  90.00000   0.00130   112  113  114     23
   114   0.18110   0.00764   0.02140   0.00764    0.00000  90.00000   0.00130   113  114  115     23
   115   0.18110   0.01528   0.02140   0.00764    0.00000  90.00000   0.00130   114  115  101     23
   116   0.18110  -0.01910  -0.01712   0.00856   90.00000   0.00000   0.00130   110  116  117     24
   117   0.18110  -0.01910  -0.00856   0.00856   90.00000   0.00000   0.00130   116  117  118     24
   118   0.18110  -0.01910   0.00000   0.00856   90.00000   0.00000   0.00130   117  118  119     24
   119   0.18110  -0.01910   0.00856   0.00856   90.00000   0.00000   0.00130   118  119  120     24
   120   0.18110  -0.01910   0.01712   0.00856   90.00000   0.00000   0.00130   119  120  111     24
   121   0.22800   0.00630   0.01464   0.00732  -90.00000   0.00000   0.00020   135  121  122     25
   122   0.22800   0.00630   0.00732   0.00732  -90.00000   0.00000   0.00020   121  122  123     25
   123   0.22800   0.00630   0.00000   0.00732  -90.00000   0.00000   0.00020   122  123  124     25
   124   0.22800   0.00630  -0.00732   0.00732  -90.00000   0.00000   0.00020   123  124  125     25
   125   0.22800   0.00630  -0.01464   0.00732  -90.00000   0.00000   0.00020   124  125  126     25
   126   0.22800   0.00504  -0.01830   0.00252    0.00000 -90.00000   0.00020   125  126  127     26
   127   0.22800   0.00252  -0.01830   0.00252    0.00000 -90.00000   0.00020   126  127  128     26
   128   0.22800   0.00000  -0.01830   0.00252    0.00000 -90.00000   0.00020   127  128  129     26
   129   0.22800  -0.00252  -0.01830   0.00252    0.00000 -90.00000   0.00020   128  129  130     26
   130   0.22800  -0.00504  -0.01830   0.00252    0.00000 -90.00000   0.00020   129  130  136     26
   131   0.22800  -0.00504   0.01830   0.00252    0.00000  90.00000   0.00020   140  131  132     27
   132   0.22800  -0.00252   0.01830   0.00252    0.00000  90.00000   0.00020   131  132  133     27
   133   0.22800   0.00000   0.01830   0.00252    0.00000  90.00000   0.00020   132  133  134     27
   134   0.22800   0.00252   0.01830   0.00252    0.00000  90.00000   0.00020   133  134  135     27
   135   0.22800   0.00504   0.01830   0.00252    0.00000  90.00000   0.00020   134  135  121     27
   136   0.22800  -0.00630  -0.01464   0.00732   90.00000   0.00000   0.00020   130  136  137     28
   137   0.22800  -0.00630  -0.00732   0.00732   90.00000   0.00000   0.00020   136  137  138     28
   138   0.22800  -0.00630   0.00000   0.00732   90.00000   0.00000   0.00020   137  138  139     28
   139   0.22800  -0.00630   0.00732   0.00732   90.00000   0.00000   0.00020   138  139  140     28
   140   0.22800  -0.00630   0.01464   0.00732   90.00000   0.00000   0.00020   139  140  131     28
   141   0.31080   0.01330   0.02720   0.01360  -90.00000   0.00000   0.00020   155  141  142     29
   142   0.31080   0.01330   0.01360   0.01360  -90.00000   0.00000   0.00020   141  142  143     29
   143   0.31080   0.01330   0.00000   0.01360  -90.00000   0.00000   0.00020   142  143  144     29
   144   0.31080   0.01330  -0.01360   0.01360  -90.00000   0.00000   0.00020   143  144  145     29
   145   0.31080   0.01330  -0.02720   0.01360  -90.00000   0.00000   0.00020   144  145  146     29
   146   0.31080   0.01064  -0.03400   0.00532    0.00000 -90.00000   0.00020   145  146  147     30
   147   0.31080   0.00532  -0.03400   0.00532    0.00000 -90.00000   0.00020   146  147  148     30
   148   0.31080   0.00000  -0.03400   0.00532    0.00000 -90.00000   0.00020   147  148  149     30
   149   0.31080  -0.00532  -0.03400   0.00532    0.00000 -90.00000   0.00020   148  149  150     30
   150   0.31080  -0.01064  -0.03400   0.00532    0.00000 -90.00000   0.00020   149  150  156     30
   151   0.31080  -0.01064   0.03400   0.00532    0.00000  90.00000   0.00020   160  151  152     31
   152   0.31080  -0.00532   0.03400   0.00532    0.00000  90.00000   0.00020   151  152  153     31
   153   0.31080   0.00000   0.03400   0.00532    0.00000  90.00000   0.00020   152  153  154     31
   154   0.31080   0.00532   0.03400   0.00532    0.00000  90.00000   0.00020   153  154  155     31
   155   0.31080   0.01064   0.03400   0.00532    0.00000  90.00000   0.00020   154  155  141     31
   156   0.31080  -0.01330  -0.02720   0.01360   90.00000   0.00000   0.00020   150  156  157     32
   157   0.31080  -0.01330  -0.01360   0.01360   90.00000   0.00000   0.00020   156  157  158     32
   158   0.31080  -0.01330   0.00000   0.01360   90.00000   0.00000   0.00020   157  158  159     32
   159   0.31080  -0.01330   0.01360   0.01360   90.00000   0.00000   0.00020   158  159  160     32
   160   0.31080  -0.01330   0.02720   0.01360   90.00000   0.00000   0.00020   159  160  151     32
   161   0.37710   0.01330   0.00760   0.00380  -90.00000   0.00000   0.00150   175  161  162     33
   162   0.37710   0.01330   0.00380   0.00380  -90.00000   0.00000   0.00150   161  162  163     33
   163   0.37710   0.01330   0.00000   0.00380  -90.00000   0.00000   0.00150   162  163  164     33
   164   0.37710   0.01330  -0.00380   0.00380  -90.00000   0.00000   0.00150   163  164  165     33
   165   0.37710   0.01330  -0.00760   0.00380  -90.00000   0.00000   0.00150   164  165  166     33
   166   0.37710   0.01064  -0.00950   0.00532    0.00000 -90.00000   0.00150   165  166  167     34
   167   0.37710   0.00532  -0.00950   0.00532    0.00000 -90.00000   0.00150   166  167  168     34
   168   0.37710   0.00000  -0.00950   0.00532    0.00000 -90.00000   0.00150   167  168  169     34
   169   0.37710  -0.00532  -0.00950   0.00532    0.00000 -90.00000   0.00150   168  169  170     34
   170   0.37710  -0.01064  -0.00950   0.00532    0.00000 -90.00000   0.00150   169  170  176     34
   171   0.37710  -0.01064   0.00950   0.00532    0.00000  90.00000   0.00150   180  171  172     35
   172   0.37710  -0.00532   0.00950   0.00532    0.00000  90.00000   0.00150   171  172  173     35
   173   0.37710   0.00000   0.00950   0.00532    0.00000  90.00000   0.00150   172  173  174     35
   174   0.37710   0.00532   0.00950   0.00532    0.00000  90.00000   0.00150   173  174  175     35
   175   0.37710   0.01064   0.00950   0.00532    0.00000  90.00000   0.00150   174  175  161     35
   176   0.37710  -0.01330  -0.00760   0.00380   90.00000   0.00000   0.00150   170  176  177     36
   177   0.37710  -0.01330  -0.00380   0.00380   90.00000   0.00000   0.00150   176  177  178     36
   178   0.37710  -0.01330   0.00000   0.00380   90.00000   0.00000   0.00150   177  178  179     36
   179   0.37710  -0.01330   0.00380   0.00380   90.00000   0.00000   0.00150   178  179  180     36
   180   0.37710  -0.01330   0.00760   0.00380   90.00000   0.00000   0.00150   179  180  171     36
   181   0.40220   0.01520   0.02744   0.01372  -90.00000   0.00000   0.00070   195  181  182     37
   182   0.40220   0.01520   0.01372   0.01372  -90.00000   0.00000   0.00070   181  182  183     37
   183   0.40220   0.01520   0.00000   0.01372  -90.00000   0.00000   0.00070   182  183  184     37
   184   0.40220   0.01520  -0.01372   0.01372  -90.00000   0.00000   0.00070   183  184  185     37
   185   0.40220   0.01520  -0.02744   0.01372  -90.00000   0.00000   0.00070   184  185  186     37
   186   0.40220   0.01216  -0.03430   0.00608    0.00000 -90.00000   0.00070   185  186  187     38
   187   0.40220   0.00608  -0.03430   0.00608    0.00000 -90.00000   0.00070   186  187  188     38
   188   0.40220   0.00000  -0.03430   0.00608    0.00000 -90.00000   0.00070   187  188  189     38
   189   0.40220  -0.00608  -0.03430   0.00608    0.00000 -90.00000   0.00070   188  189  190     38
   190   0.40220  -0.01216  -0.03430   0.00608    0.00000 -90.00000   0.00070   189  190  196     38
   191   0.40220  -0.01216   0.03430   0.00608    0.00000  90.00000   0.00070   200  191  192     39
   192   0.40220  -0.00608   0.03430   0.00608    0.00000  90.00000   0.00070   191  192  193     39
   193   0.40220   0.00000   0.03430   0.00608    0.00000  90.00000   0.00070   192  193  194     39
   194   0.40220   0.00608   0.03430   0.00608    0.00000  90.00000   0.00070   193  194  195     39
   195   0.40220   0.01216   0.03430   0.00608    0.00000  90.00000   0.00070   194  195  181     39
   196   0.40220  -0.01520  -0.02744   0.01372   90.00000   0.00000   0.00070   190  196  197     40
   197   0.40220  -0.01520  -0.01372   0.01372   90.00000   0.00000   0.00070   196  197  198     40
   198   0.40220  -0.01520   0.00000   0.01372   90.00000   0.00000   0.00070   197  198  199     40
   199   0.40220  -0.01520   0.01372   0.01372   90.00000   0.00000   0.00070   198  199  200     40
   200   0.40220  -0.01520   0.02744   0.01372   90.00000   0.00000   0.00070   199  200  191     40






 ***** DATA CARD NO.  1   EX   0     5     3     0  1.00000E+00  0.00000E+00  0.00000E+00  0.00000E+00  0.00000E+00  0.00000E+00
 ***** DATA CARD NO.  2   FR   0     1     0     0  2.44200E+03  0.00000E+00  0.00000E+00  0.00000E+00  0.00000E+00  0.00000E+00
 ***** DATA CARD NO.  3   RP   0     1     1  1000  9.00000E+01  0.00000E+00  0.00000E+00  0.00000E+00  0.00000E+00  0.00000E+00




                                 - - - - - - FREQUENCY - - - - - -

                                    FREQUENCY= 2.4420E+03 MHZ
                                    WAVELENGTH= 1.2277E-01 METERS




                    APPROXIMATE INTEGRATION EMPLOYED FOR SEGMENTS MORE THAN   1.000 WAVELENGTHS APART



                               - - - STRUCTURE IMPEDANCE LOADING - - -

                                   THIS STRUCTURE IS NOT LOADED



                                  - - - ANTENNA ENVIRONMENT - - -

                                            FREE SPACE



                                - - - MATRIX TIMING - - -

                        FILL=    0.078 SEC.,  FACTOR=    0.016 SEC.



                                          - - - ANTENNA INPUT PARAMETERS - - -

   TAG   SEG.    VOLTAGE (VOLTS)         CURRENT (AMPS)         IMPEDANCE (OHMS)        ADMITTANCE (MHOS)      POWER
   NO.   NO.    REAL        IMAG.       REAL        IMAG.       REAL        IMAG.       REAL        IMAG.     (WATTS)
     5    23 1.00000E+00 0.00000E+00 2.58746E-03-5.27659E-04 3.71048E+02 7.56675E+01 2.58746E-03-5.27659E-04 1.29373E-03



                             - - - CURRENTS AND LOCATION - - -

                                 DISTANCES IN WAVELENGTHS


  SEG.  TAG    COORD. OF SEG. CENTER     SEG.            - - - CURRENT (AMPS) - - -
  NO.   NO.     X        Y        Z      LENGTH     REAL        IMAG.       MAG.        PHASE
     1    1  -0.5441   0.1434   0.1408  0.07038   1.5167E-03 -6.8039E-04  1.6623E-03  -24.162
     2    1  -0.5441   0.1434   0.0704  0.07038   1.8439E-03 -8.5265E-04  2.0315E-03  -24.817
     3    1  -0.5441   0.1434   0.0000  0.07038   1.9601E-03 -9.1413E-04  2.1628E-03  -25.002
     4    1  -0.5441   0.1434  -0.0704  0.07038   1.8439E-03 -8.5265E-04  2.0315E-03  -24.817
     5    1  -0.5441   0.1434  -0.1408  0.07038   1.5167E-03 -6.8039E-04  1.6623E-03  -24.162
     6    2  -0.5441   0.1147  -0.1759  0.05734   1.0789E-03 -4.5539E-04  1.1711E-03  -22.884
     7    2  -0.5441   0.0573  -0.1759  0.05734   5.8419E-04 -2.3159E-04  6.2842E-04  -21.624
     8    2  -0.5441   0.0000  -0.1759  0.05734   2.3058E-05  6.3323E-06  2.3912E-05   15.356
     9    2  -0.5441  -0.0573  -0.1759  0.05734  -5.3826E-04  2.3745E-04  5.8831E-04  156.195
    10    2  -0.5441  -0.1147  -0.1759  0.05734  -1.0334E-03  4.4096E-04  1.1235E-03  156.891
    11    3  -0.5441  -0.1147   0.1759  0.05734  -1.0334E-03  4.4096E-04  1.1235E-03  156.891
    12    3  -0.5441  -0.0573   0.1759  0.05734  -5.3826E-04  2.3745E-04  5.8831E-04  156.195
    13    3  -0.5441   0.0000   0.1759  0.05734   2.3058E-05  6.3322E-06  2.3912E-05   15.356
    14    3  -0.5441   0.0573   0.1759  0.05734   5.8419E-04 -2.3159E-04  6.2842E-04  -21.624
    15    3  -0.5441   0.1147   0.1759  0.05734   1.0789E-03 -4.5539E-04  1.1711E-03  -22.884
    16    4  -0.5441  -0.1434  -0.1408  0.07038  -1.4705E-03  6.2862E-04  1.5993E-03  156.855
    17    4  -0.5441  -0.1434  -0.0704  0.07038  -1.7970E-03  7.7136E-04  1.9556E-03  156.769
    18    4  -0.5441  -0.1434   0.0000  0.07038  -1.9130E-03  8.2237E-04  2.0823E-03  156.738
    19    4  -0.5441  -0.1434   0.0704  0.07038  -1.7970E-03  7.7136E-04  1.9556E-03  156.769
    20    4  -0.5441  -0.1434   0.1408  0.07038  -1.4705E-03  6.2862E-04  1.5993E-03  156.855
    21    5   0.0000   0.1360   0.1688  0.08439   1.8426E-03 -2.0619E-03  2.7653E-03  -48.214
    22    5   0.0000   0.1360   0.0844  0.08439   2.3880E-03 -1.5012E-03  2.8207E-03  -32.155
    23    5   0.0000   0.1360   0.0000  0.08439   2.5875E-03 -5.2766E-04  2.6407E-03  -11.526
    24    5   0.0000   0.1360  -0.0844  0.08439   2.3880E-03 -1.5012E-03  2.8207E-03  -32.155
    25    5   0.0000   0.1360  -0.1688  0.08439   1.8426E-03 -2.0619E-03  2.7653E-03  -48.214
    26    6   0.0000   0.1088  -0.2110  0.05441   1.2310E-03 -1.9954E-03  2.3446E-03  -58.329
    27    6   0.0000   0.0544  -0.2110  0.05441   6.4367E-04 -1.7163E-03  1.8331E-03  -69.443
    28    6   0.0000   0.0000  -0.2110  0.05441   3.9476E-06 -1.2676E-03  1.2676E-03  -89.822
    29    6   0.0000  -0.0544  -0.2110  0.05441  -6.1992E-04 -6.8197E-04  9.2162E-04 -132.271
    30    6   0.0000  -0.1088  -0.2110  0.05441  -1.1602E-03 -1.0440E-05  1.1602E-03 -179.484
    31    7   0.0000  -0.1088   0.2110  0.05441  -1.1602E-03 -1.0440E-05  1.1602E-03 -179.484
    32    7   0.0000  -0.0544   0.2110  0.05441  -6.1992E-04 -6.8197E-04  9.2162E-04 -132.271
    33    7   0.0000   0.0000   0.2110  0.05441   3.9478E-06 -1.2676E-03  1.2676E-03  -89.822
    34    7   0.0000   0.0544   0.2110  0.05441   6.4367E-04 -1.7163E-03  1.8331E-03  -69.443
    35    7   0.0000   0.1088   0.2110  0.05441   1.2310E-03 -1.9954E-03  2.3446E-03  -58.329
    36    8   0.0000  -0.1360  -0.1688  0.08439  -1.6785E-03  8.6001E-04  1.8860E-03  152.871
    37    8   0.0000  -0.1360  -0.0844  0.08439  -2.1387E-03  1.6490E-03  2.7006E-03  142.366
    38    8   0.0000  -0.1360   0.0000  0.08439  -2.3076E-03  1.9387E-03  3.0139E-03  139.964
    39    8   0.0000  -0.1360   0.0844  0.08439  -2.1387E-03  1.6490E-03  2.7006E-03  142.366
    40    8   0.0000  -0.1360   0.1688  0.08439  -1.6785E-03  8.6001E-04  1.8860E-03  152.871
    41    9   0.3543   0.1263   0.1733  0.08667   7.0576E-04  3.0090E-04  7.6723E-04   23.091
    42    9   0.3543   0.1263   0.0867  0.08667   9.4449E-04  3.6062E-04  1.0110E-03   20.897
    43    9   0.3543   0.1263   0.0000  0.08667   1.0307E-03  3.8228E-04  1.0993E-03   20.349
    44    9   0.3543   0.1263  -0.0867  0.08667   9.4449E-04  3.6062E-04  1.0110E-03   20.897
    45    9   0.3543   0.1263  -0.1733  0.08667   7.0576E-04  3.0090E-04  7.6723E-04   23.091
    46   10   0.3543   0.1010  -0.2167  0.05050   4.4544E-04  2.3579E-04  5.0399E-04   27.894
    47   10   0.3543   0.0505  -0.2167  0.05050   2.3185E-04  1.5556E-04  2.7920E-04   33.860
    48   10   0.3543   0.0000  -0.2167  0.05050   7.4855E-06  5.2554E-05  5.3084E-05   81.894
    49   10   0.3543  -0.0505  -0.2167  0.05050  -2.0962E-04 -5.8950E-05  2.1776E-04 -164.293
    50   10   0.3543  -0.1010  -0.2167  0.05050  -4.0119E-04 -1.6389E-04  4.3337E-04 -157.780
    51   11   0.3543  -0.1010   0.2167  0.05050  -4.0119E-04 -1.6389E-04  4.3337E-04 -157.780
    52   11   0.3543  -0.0505   0.2167  0.05050  -2.0962E-04 -5.8950E-05  2.1776E-04 -164.293
    53   11   0.3543   0.0000   0.2167  0.05050   7.4856E-06  5.2554E-05  5.3084E-05   81.894
    54   11   0.3543   0.0505   0.2167  0.05050   2.3185E-04  1.5556E-04  2.7920E-04   33.860
    55   11   0.3543   0.1010   0.2167  0.05050   4.4544E-04  2.3579E-04  5.0399E-04   27.894
    56   12   0.3543  -0.1263  -0.1733  0.08667  -6.1098E-04 -2.8155E-04  6.7273E-04 -155.259
    57   12   0.3543  -0.1263  -0.0867  0.08667  -8.0266E-04 -3.9697E-04  8.9546E-04 -153.684
    58   12   0.3543  -0.1263   0.0000  0.08667  -8.7210E-04 -4.4028E-04  9.7693E-04 -153.213
    59   12   0.3543  -0.1263   0.0867  0.08667  -8.0266E-04 -3.9697E-04  8.9546E-04 -153.684
    60   12   0.3543  -0.1263   0.1733  0.08667  -6.1098E-04 -2.8155E-04  6.7273E-04 -155.259
    61   13   0.5580   0.1303   0.0938  0.04692  -6.7643E-05  1.3847E-04  1.5411E-04  116.035
    62   13   0.5580   0.1303   0.0469  0.04692  -7.8961E-05  1.5952E-04  1.7799E-04  116.336
    63   13   0.5580   0.1303   0.0000  0.04692  -8.3028E-05  1.6671E-04  1.8625E-04  116.474
    64   13   0.5580   0.1303  -0.0469  0.04692  -7.8961E-05  1.5952E-04  1.7799E-04  116.336
    65   13   0.5580   0.1303  -0.0938  0.04692  -6.7643E-05  1.3847E-04  1.5411E-04  116.035
    66   14   0.5580   0.1043  -0.1173  0.05213  -4.9778E-05  1.0267E-04  1.1410E-04  115.866
    67   14   0.5580   0.0521  -0.1173  0.05213  -2.2786E-05  5.2502E-05  5.7233E-05  113.461
    68   14   0.5580   0.0000  -0.1173  0.05213   8.4306E-06 -5.5355E-06  1.0085E-05  -33.289
    69   14   0.5580  -0.0521  -0.1173  0.05213   3.9017E-05 -6.5527E-05  7.6263E-05  -59.229
    70   14   0.5580  -0.1043  -0.1173  0.05213   6.4330E-05 -1.2168E-04  1.3764E-04  -62.136
    71   15   0.5580  -0.1043   0.1173  0.05213   6.4330E-05 -1.2168E-04  1.3764E-04  -62.136
    72   15   0.5580  -0.0521   0.1173  0.05213   3.9017E-05 -6.5527E-05  7.6263E-05  -59.229
    73   15   0.5580   0.0000   0.1173  0.05213   8.4306E-06 -5.5355E-06  1.0085E-05  -33.289
    74   15   0.5580   0.0521   0.1173  0.05213  -2.2786E-05  5.2502E-05  5.7233E-05  113.461
    75   15   0.5580   0.1043   0.1173  0.05213  -4.9778E-05  1.0267E-04  1.1410E-04  115.866
    76   16   0.5580  -0.1303  -0.0938  0.04692   8.0274E-05 -1.6660E-04  1.8493E-04  -64.274
    77   16   0.5580  -0.1303  -0.0469  0.04692   9.0407E-05 -1.9353E-04  2.1360E-04  -64.960
    78   16   0.5580  -0.1303   0.0000  0.04692   9.4066E-05 -2.0272E-04  2.2348E-04  -65.108
    79   16   0.5580  -0.1303   0.0469  0.04692   9.0407E-05 -1.9353E-04  2.1360E-04  -64.960
    80   16   0.5580  -0.1303   0.0938  0.04692   8.0274E-05 -1.6660E-04  1.8493E-04  -64.274
    81   17   1.0165   0.1409   0.1212  0.06060  -1.3090E-04  1.4284E-05  1.3168E-04  173.772
    82   17   1.0165   0.1409   0.0606  0.06060  -1.5600E-04  1.8537E-05  1.5710E-04  173.223
    83   17   1.0165   0.1409   0.0000  0.06060  -1.6481E-04  2.0056E-05  1.6602E-04  173.062
    84   17   1.0165   0.1409  -0.0606  0.06060  -1.5600E-04  1.8537E-05  1.5710E-04  173.223
    85   17   1.0165   0.1409  -0.1212  0.06060  -1.3090E-04  1.4284E-05  1.3168E-04  173.772
    86   18   1.0165   0.1127  -0.1515  0.05637  -9.4585E-05  8.5531E-06  9.4971E-05  174.833
    87   18   1.0165   0.0564  -0.1515  0.05637  -5.0584E-05  3.3474E-06  5.0695E-05  176.214
    88   18   1.0165   0.0000  -0.1515  0.05637  -2.0450E-06 -1.0369E-06  2.2929E-06 -153.114
    89   18   1.0165  -0.0564  -0.1515  0.05637   4.5582E-05 -4.2498E-06  4.5779E-05   -5.327
    90   18   1.0165  -0.1127  -0.1515  0.05637   8.6891E-05 -5.9825E-06  8.7097E-05   -3.939
    91   19   1.0165  -0.1127   0.1515  0.05637   8.6891E-05 -5.9825E-06  8.7097E-05   -3.939
    92   19   1.0165  -0.0564   0.1515  0.05637   4.5582E-05 -4.2498E-06  4.5779E-05   -5.327
    93   19   1.0165   0.0000   0.1515  0.05637  -2.0451E-06 -1.0369E-06  2.2929E-06 -153.114
    94   19   1.0165   0.0564   0.1515  0.05637  -5.0584E-05  3.3474E-06  5.0695E-05  176.214
    95   19   1.0165   0.1127   0.1515  0.05637  -9.4585E-05  8.5531E-06  9.4971E-05  174.833
    96   20   1.0165  -0.1409  -0.1212  0.06060   1.1897E-04 -6.2529E-06  1.1914E-04   -3.009
    97   20   1.0165  -0.1409  -0.0606  0.06060   1.4093E-04 -6.5229E-06  1.4108E-04   -2.650
    98   20   1.0165  -0.1409   0.0000  0.06060   1.4864E-04 -6.6593E-06  1.4879E-04   -2.565
    99   20   1.0165  -0.1409   0.0606  0.06060   1.4093E-04 -6.5229E-06  1.4108E-04   -2.650
   100   20   1.0165  -0.1409   0.1212  0.06060   1.1897E-04 -6.2529E-06  1.1914E-04   -3.009
   101   21   1.4751   0.1556   0.1394  0.06972   4.5208E-05 -1.3996E-05  4.7325E-05  -17.203
   102   21   1.4751   0.1556   0.0697  0.06972   5.5769E-05 -1.8183E-05  5.8658E-05  -18.058
   103   21   1.4751   0.1556   0.0000  0.06972   5.9578E-05 -1.9714E-05  6.2754E-05  -18.309
   104   21   1.4751   0.1556  -0.0697  0.06972   5.5769E-05 -1.8183E-05  5.8658E-05  -18.058
   105   21   1.4751   0.1556  -0.1394  0.06972   4.5208E-05 -1.3996E-05  4.7325E-05  -17.203
   106   22   1.4751   0.1245  -0.1743  0.06223   3.1064E-05 -8.5865E-06  3.2229E-05  -15.451
   107   22   1.4751   0.0622  -0.1743  0.06223   1.5502E-05 -3.0338E-06  1.5796E-05  -11.073
   108   22   1.4751   0.0000  -0.1743  0.06223  -8.6828E-07  2.4733E-06  2.6212E-06  109.344
   109   22   1.4751  -0.0622  -0.1743  0.06223  -1.5802E-05  7.1948E-06  1.7363E-05  155.520
   110   22   1.4751  -0.1245  -0.1743  0.06223  -2.7088E-05  1.0400E-05  2.9016E-05  158.996
   111   23   1.4751  -0.1245   0.1743  0.06223  -2.7088E-05  1.0400E-05  2.9016E-05  158.996
   112   23   1.4751  -0.0622   0.1743  0.06223  -1.5802E-05  7.1948E-06  1.7363E-05  155.520
   113   23   1.4751   0.0000   0.1743  0.06223  -8.6827E-07  2.4732E-06  2.6212E-06  109.344
   114   23   1.4751   0.0622   0.1743  0.06223   1.5502E-05 -3.0338E-06  1.5796E-05  -11.073
   115   23   1.4751   0.1245   0.1743  0.06223   3.1064E-05 -8.5865E-06  3.2229E-05  -15.451
   116   24   1.4751  -0.1556  -0.1394  0.06972  -3.3985E-05  1.1870E-05  3.5998E-05  160.746
   117   24   1.4751  -0.1556  -0.0697  0.06972  -3.9132E-05  1.3221E-05  4.1305E-05  161.332
   118   24   1.4751  -0.1556   0.0000  0.06972  -4.1045E-05  1.3771E-05  4.3294E-05  161.453
   119   24   1.4751  -0.1556   0.0697  0.06972  -3.9132E-05  1.3221E-05  4.1305E-05  161.332
   120   24   1.4751  -0.1556   0.1394  0.06972  -3.3985E-05  1.1870E-05  3.5998E-05  160.746
   121   25   1.8572   0.0513   0.1192  0.05962   1.9660E-06 -5.3305E-06  5.6814E-06  -69.755
   122   25   1.8572   0.0513   0.0596  0.05962   2.9403E-06 -7.7810E-06  8.3180E-06  -69.300
   123   25   1.8572   0.0513   0.0000  0.05962   3.2652E-06 -8.6212E-06  9.2188E-06  -69.256
   124   25   1.8572   0.0513  -0.0596  0.05962   2.9403E-06 -7.7810E-06  8.3180E-06  -69.300
   125   25   1.8572   0.0513  -0.1192  0.05962   1.9660E-06 -5.3305E-06  5.6814E-06  -69.755
   126   26   1.8572   0.0411  -0.1491  0.02053   9.4863E-07 -2.8925E-06  3.0441E-06  -71.843
   127   26   1.8572   0.0205  -0.1491  0.02053   3.1447E-07 -1.5742E-06  1.6053E-06  -78.703
   128   26   1.8572   0.0000  -0.1491  0.02053  -3.8697E-07 -2.6975E-07  4.7171E-07 -145.121
   129   26   1.8572  -0.0205  -0.1491  0.02053  -1.1451E-06  1.0074E-06  1.5252E-06  138.661
   130   26   1.8572  -0.0411  -0.1491  0.02053  -1.9539E-06  2.2417E-06  2.9737E-06  131.076
   131   27   1.8572  -0.0411   0.1491  0.02053  -1.9539E-06  2.2417E-06  2.9737E-06  131.076
   132   27   1.8572  -0.0205   0.1491  0.02053  -1.1451E-06  1.0074E-06  1.5252E-06  138.661
   133   27   1.8572   0.0000   0.1491  0.02053  -3.8697E-07 -2.6975E-07  4.7171E-07 -145.121
   134   27   1.8572   0.0205   0.1491  0.02053   3.1447E-07 -1.5742E-06  1.6053E-06  -78.703
   135   27   1.8572   0.0411   0.1491  0.02053   9.4863E-07 -2.8925E-06  3.0441E-06  -71.843
   136   28   1.8572  -0.0513  -0.1192  0.05962  -3.5259E-06  4.4120E-06  5.6478E-06  128.631
   137   28   1.8572  -0.0513  -0.0596  0.05962  -5.0719E-06  6.5860E-06  8.3126E-06  127.600
   138   28   1.8572  -0.0513   0.0000  0.05962  -5.5934E-06  7.3311E-06  9.2213E-06  127.343
   139   28   1.8572  -0.0513   0.0596  0.05962  -5.0719E-06  6.5860E-06  8.3126E-06  127.600
   140   28   1.8572  -0.0513   0.1192  0.05962  -3.5259E-06  4.4120E-06  5.6478E-06  128.631
   141   29   2.5316   0.1083   0.2216  0.11078   4.0797E-06 -8.1837E-06  9.1442E-06  -63.503
   142   29   2.5316   0.1083   0.1108  0.11078   7.3499E-06 -1.3715E-05  1.5560E-05  -61.812
   143   29   2.5316   0.1083   0.0000  0.11078   8.5976E-06 -1.5896E-05  1.8072E-05  -61.592
   144   29   2.5316   0.1083  -0.1108  0.11078   7.3499E-06 -1.3715E-05  1.5560E-05  -61.812
   145   29   2.5316   0.1083  -0.2216  0.11078   4.0797E-06 -8.1837E-06  9.1442E-06  -63.503
   146   30   2.5316   0.0867  -0.2769  0.04333   1.2676E-06 -3.7102E-06  3.9207E-06  -71.137
   147   30   2.5316   0.0433  -0.2769  0.04333  -2.0626E-07 -1.1586E-06  1.1768E-06 -100.094
   148   30   2.5316   0.0000  -0.2769  0.04333  -1.4689E-06  1.3227E-06  1.9767E-06  137.997
   149   30   2.5316  -0.0433  -0.2769  0.04333  -2.4246E-06  3.5749E-06  4.3195E-06  124.147
   150   30   2.5316  -0.0867  -0.2769  0.04333  -2.9854E-06  5.4435E-06  6.2084E-06  118.742
   151   31   2.5316  -0.0867   0.2769  0.04333  -2.9854E-06  5.4435E-06  6.2084E-06  118.742
   152   31   2.5316  -0.0433   0.2769  0.04333  -2.4246E-06  3.5749E-06  4.3195E-06  124.147
   153   31   2.5316   0.0000   0.2769  0.04333  -1.4689E-06  1.3227E-06  1.9767E-06  137.997
   154   31   2.5316   0.0433   0.2769  0.04333  -2.0626E-07 -1.1586E-06  1.1768E-06 -100.094
   155   31   2.5316   0.0867   0.2769  0.04333   1.2676E-06 -3.7102E-06  3.9207E-06  -71.137
   156   32   2.5316  -0.1083  -0.2216  0.11078  -3.1824E-06  7.9609E-06  8.5734E-06  111.790
   157   32   2.5316  -0.1083  -0.1108  0.11078  -3.2448E-06  1.1105E-05  1.1569E-05  106.288
   158   32   2.5316  -0.1083   0.0000  0.11078  -3.2416E-06  1.2357E-05  1.2775E-05  104.699
   159   32   2.5316  -0.1083   0.1108  0.11078  -3.2448E-06  1.1105E-05  1.1569E-05  106.288
   160   32   2.5316  -0.1083   0.2216  0.11078  -3.1824E-06  7.9609E-06  8.5734E-06  111.790
   161   33   3.0716   0.1083   0.0619  0.03095  -3.0801E-06 -6.3930E-06  7.0963E-06 -115.724
   162   33   3.0716   0.1083   0.0310  0.03095  -3.3769E-06 -7.1231E-06  7.8830E-06 -115.365
   163   33   3.0716   0.1083   0.0000  0.03095  -3.4780E-06 -7.3711E-06  8.1504E-06 -115.260
   164   33   3.0716   0.1083  -0.0310  0.03095  -3.3769E-06 -7.1231E-06  7.8830E-06 -115.365
   165   33   3.0716   0.1083  -0.0619  0.03095  -3.0801E-06 -6.3930E-06  7.0963E-06 -115.724
   166   34   3.0716   0.0867  -0.0774  0.04333  -2.3374E-06 -4.4933E-06  5.0649E-06 -117.483
   167   34   3.0716   0.0433  -0.0774  0.04333  -1.5004E-06 -2.1853E-06  2.6508E-06 -124.474
   168   34   3.0716   0.0000  -0.0774  0.04333  -6.6297E-07  2.5935E-07  7.1190E-07  158.635
   169   34   3.0716  -0.0433  -0.0774  0.04333   1.3525E-07  2.7269E-06  2.7303E-06   87.161
   170   34   3.0716  -0.0867  -0.0774  0.04333   8.4858E-07  5.1154E-06  5.1853E-06   80.581
   171   35   3.0716  -0.0867   0.0774  0.04333   8.4858E-07  5.1154E-06  5.1853E-06   80.581
   172   35   3.0716  -0.0433   0.0774  0.04333   1.3525E-07  2.7269E-06  2.7303E-06   87.161
   173   35   3.0716   0.0000   0.0774  0.04333  -6.6297E-07  2.5935E-07  7.1190E-07  158.635
   174   35   3.0716   0.0433   0.0774  0.04333  -1.5004E-06 -2.1853E-06  2.6508E-06 -124.474
   175   35   3.0716   0.0867   0.0774  0.04333  -2.3374E-06 -4.4934E-06  5.0649E-06 -117.483
   176   36   3.0716  -0.1083  -0.0619  0.03095   1.3814E-06  7.1699E-06  7.3017E-06   79.094
   177   36   3.0716  -0.1083  -0.0310  0.03095   1.5775E-06  7.9687E-06  8.1233E-06   78.803
   178   36   3.0716  -0.1083   0.0000  0.03095   1.6441E-06  8.2397E-06  8.4021E-06   78.716
   179   36   3.0716  -0.1083   0.0310  0.03095   1.5775E-06  7.9687E-06  8.1233E-06   78.803
   180   36   3.0716  -0.1083   0.0619  0.03095   1.3814E-06  7.1699E-06  7.3017E-06   79.094
   181   37   3.2761   0.1238   0.2235  0.11176   4.6317E-06  3.6479E-06  5.8958E-06   38.223
   182   37   3.2761   0.1238   0.1118  0.11176   8.2140E-06  6.9784E-06  1.0778E-05   40.350
   183   37   3.2761   0.1238   0.0000  0.11176   9.6720E-06  8.3299E-06  1.2765E-05   40.736
   184   37   3.2761   0.1238  -0.1118  0.11176   8.2140E-06  6.9784E-06  1.0778E-05   40.350
   185   37   3.2761   0.1238  -0.2235  0.11176   4.6317E-06  3.6479E-06  5.8958E-06   38.223
   186   38   3.2761   0.0990  -0.2794  0.04952   1.8010E-06  9.0105E-07  2.0138E-06   26.579
   187   38   3.2761   0.0495  -0.2794  0.04952   1.2778E-07 -6.0661E-07  6.1992E-07  -78.105
   188   38   3.2761   0.0000  -0.2794  0.04952  -1.4276E-06 -1.8574E-06  2.3427E-06 -127.546
   189   38   3.2761  -0.0495  -0.2794  0.04952  -2.7311E-06 -2.7298E-06  3.8615E-06 -135.014
   190   38   3.2761  -0.0990  -0.2794  0.04952  -3.6551E-06 -3.1117E-06  4.8003E-06 -139.591
   191   39   3.2761  -0.0990   0.2794  0.04952  -3.6551E-06 -3.1117E-06  4.8003E-06 -139.591
   192   39   3.2761  -0.0495   0.2794  0.04952  -2.7311E-06 -2.7298E-06  3.8615E-06 -135.014
   193   39   3.2761   0.0000   0.2794  0.04952  -1.4276E-06 -1.8574E-06  2.3427E-06 -127.546
   194   39   3.2761   0.0495   0.2794  0.04952   1.2778E-07 -6.0661E-07  6.1992E-07  -78.104
   195   39   3.2761   0.0990   0.2794  0.04952   1.8010E-06  9.0105E-07  2.0138E-06   26.579
   196   40   3.2761  -0.1238  -0.2235  0.11176  -4.5081E-06 -2.8728E-06  5.3457E-06 -147.493
   197   40   3.2761  -0.1238  -0.1118  0.11176  -5.7956E-06 -2.6917E-06  6.3902E-06 -155.088
   198   40   3.2761  -0.1238   0.0000  0.11176  -6.3652E-06 -2.6774E-06  6.9054E-06 -157.187
   199   40   3.2761  -0.1238   0.1118  0.11176  -5.7956E-06 -2.6917E-06  6.3902E-06 -155.088
   200   40   3.2761  -0.1238   0.2235  0.11176  -4.5081E-06 -2.8728E-06  5.3457E-06 -147.493



                                        - - - POWER BUDGET - - -

                                           INPUT POWER   = 1.2937E-03 WATTS
                                           RADIATED POWER= 1.2937E-03 WATTS
                                           STRUCTURE LOSS= 0.0000E+00 WATTS
                                           NETWORK LOSS  = 0.0000E+00 WATTS
                                           EFFICIENCY    = 100.00 PERCENT



                                                - - - RADIATION PATTERNS - - -

  - - ANGLES - -           - POWER GAINS -       - - - POLARIZATION - - -    - - - E(THETA) - - -    - - - E(PHI) - - -
  THETA     PHI        VERT.   HOR.    TOTAL      AXIAL     TILT   SENSE     MAGNITUDE    PHASE      MAGNITUDE    PHASE 
 DEGREES  DEGREES       DB      DB      DB        RATIO     DEG.              VOLTS/M    DEGREES      VOLTS/M    DEGREES
   90.00     0.00     -27.55 -161.26  -27.55    0.00000     0.00  LINEAR    1.16741E-02  -154.35    2.40864E-09  -104.91






 ***** DATA CARD NO.  4   EN   0     0     0     0  0.00000E+00  0.00000E+00  0.00000E+00  0.00000E+00  0.00000E+00  0.00000E+00

 RUN TIME =     0.094
