1



                                 *********************************************

                                    NUMERICAL ELECTROMAGNETICS CODE (NEC-2D)

                                 *********************************************




                                     - - - - COMMENTS - - - -


                          ECE 6370 Homework 9                                                        
                          Caitlyn Caggia                                                             
                          Yagi Uda Array with 10 Elements                                            
                          File Generated by MatLab                                                   




                                 - - - STRUCTURE SPECIFICATION - - -

                                     COORDINATES MUST BE INPUT IN
                                     METERS OR BE SCALED TO METERS
                                     BEFORE STRUCTURE INPUT IS ENDED


  WIRE                                                                               NO. OF    FIRST  LAST     TAG
  NO.        X1         Y1         Z1          X2         Y2         Z2      RADIUS   SEG.     SEG.   SEG.     NO.
     1   -0.02460    0.01740    0.01740    -0.02460    0.01740   -0.01740    0.00080      5        1     5       1
     2   -0.02460    0.01740   -0.01740    -0.02460   -0.01740   -0.01740    0.00080      5        6    10       2
     3   -0.02460   -0.01740    0.01740    -0.02460    0.01740    0.01740    0.00080      5       11    15       3
     4   -0.02460   -0.01740   -0.01740    -0.02460   -0.01740    0.01740    0.00080      5       16    20       4
     5    0.00000    0.01590    0.01590     0.00000    0.01590   -0.01590    0.00130      5       21    25       5
     6    0.00000    0.01590   -0.01590     0.00000   -0.01590   -0.01590    0.00130      5       26    30       6
     7    0.00000   -0.01590    0.01590     0.00000    0.01590    0.01590    0.00130      5       31    35       7
     8    0.00000   -0.01590   -0.01590     0.00000   -0.01590    0.01590    0.00130      5       36    40       8
     9    0.02460    0.01610    0.01610     0.02460    0.01610   -0.01610    0.00120      5       41    45       9
    10    0.02460    0.01610   -0.01610     0.02460   -0.01610   -0.01610    0.00120      5       46    50      10
    11    0.02460   -0.01610    0.01610     0.02460    0.01610    0.01610    0.00120      5       51    55      11
    12    0.02460   -0.01610   -0.01610     0.02460   -0.01610    0.01610    0.00120      5       56    60      12
    13    0.04910    0.01560    0.01560     0.04910    0.01560   -0.01560    0.00120      5       61    65      13
    14    0.04910    0.01560   -0.01560     0.04910   -0.01560   -0.01560    0.00120      5       66    70      14
    15    0.04910   -0.01560    0.01560     0.04910    0.01560    0.01560    0.00120      5       71    75      15
    16    0.04910   -0.01560   -0.01560     0.04910   -0.01560    0.01560    0.00120      5       76    80      16
    17    0.07370    0.01390    0.01390     0.07370    0.01390   -0.01390    0.00150      5       81    85      17
    18    0.07370    0.01390   -0.01390     0.07370   -0.01390   -0.01390    0.00150      5       86    90      18
    19    0.07370   -0.01390    0.01390     0.07370    0.01390    0.01390    0.00150      5       91    95      19
    20    0.07370   -0.01390   -0.01390     0.07370   -0.01390    0.01390    0.00150      5       96   100      20
    21    0.09830    0.01500    0.01500     0.09830    0.01500   -0.01500    0.00020      5      101   105      21
    22    0.09830    0.01500   -0.01500     0.09830   -0.01500   -0.01500    0.00020      5      106   110      22
    23    0.09830   -0.01500    0.01500     0.09830    0.01500    0.01500    0.00020      5      111   115      23
    24    0.09830   -0.01500   -0.01500     0.09830   -0.01500    0.01500    0.00020      5      116   120      24
    25    0.12290    0.01450    0.01450     0.12290    0.01450   -0.01450    0.00030      5      121   125      25
    26    0.12290    0.01450   -0.01450     0.12290   -0.01450   -0.01450    0.00030      5      126   130      26
    27    0.12290   -0.01450    0.01450     0.12290    0.01450    0.01450    0.00030      5      131   135      27
    28    0.12290   -0.01450   -0.01450     0.12290   -0.01450    0.01450    0.00030      5      136   140      28
    29    0.14740    0.01340    0.01340     0.14740    0.01340   -0.01340    0.00070      5      141   145      29
    30    0.14740    0.01340   -0.01340     0.14740   -0.01340   -0.01340    0.00070      5      146   150      30
    31    0.14740   -0.01340    0.01340     0.14740    0.01340    0.01340    0.00070      5      151   155      31
    32    0.14740   -0.01340   -0.01340     0.14740   -0.01340    0.01340    0.00070      5      156   160      32
    33    0.17200    0.01320    0.01320     0.17200    0.01320   -0.01320    0.00140      5      161   165      33
    34    0.17200    0.01320   -0.01320     0.17200   -0.01320   -0.01320    0.00140      5      166   170      34
    35    0.17200   -0.01320    0.01320     0.17200    0.01320    0.01320    0.00140      5      171   175      35
    36    0.17200   -0.01320   -0.01320     0.17200   -0.01320    0.01320    0.00140      5      176   180      36
    37    0.19660    0.01590    0.01590     0.19660    0.01590   -0.01590    0.00140      5      181   185      37
    38    0.19660    0.01590   -0.01590     0.19660   -0.01590   -0.01590    0.00140      5      186   190      38
    39    0.19660   -0.01590    0.01590     0.19660    0.01590    0.01590    0.00140      5      191   195      39
    40    0.19660   -0.01590   -0.01590     0.19660   -0.01590    0.01590    0.00140      5      196   200      40

   TOTAL SEGMENTS USED=  200     NO. SEG. IN A SYMMETRIC CELL=  200     SYMMETRY FLAG=  0


         - MULTIPLE WIRE JUNCTIONS -
 JUNCTION    SEGMENTS  (- FOR END 1, + FOR END 2)
  NONE




                                 - - - - SEGMENTATION DATA - - - -

                                        COORDINATES IN METERS

                         I+ AND I- INDICATE THE SEGMENTS BEFORE AND AFTER I


  SEG.   COORDINATES OF SEG. CENTER     SEG.     ORIENTATION ANGLES    WIRE    CONNECTION DATA   TAG
  NO.       X         Y         Z       LENGTH     ALPHA     BETA      RADIUS    I-   I    I+    NO.
     1  -0.02460   0.01740   0.01392   0.00696  -90.00000   0.00000   0.00080    15    1    2      1
     2  -0.02460   0.01740   0.00696   0.00696  -90.00000   0.00000   0.00080     1    2    3      1
     3  -0.02460   0.01740   0.00000   0.00696  -90.00000   0.00000   0.00080     2    3    4      1
     4  -0.02460   0.01740  -0.00696   0.00696  -90.00000   0.00000   0.00080     3    4    5      1
     5  -0.02460   0.01740  -0.01392   0.00696  -90.00000   0.00000   0.00080     4    5    6      1
     6  -0.02460   0.01392  -0.01740   0.00696    0.00000 -90.00000   0.00080     5    6    7      2
     7  -0.02460   0.00696  -0.01740   0.00696    0.00000 -90.00000   0.00080     6    7    8      2
     8  -0.02460   0.00000  -0.01740   0.00696    0.00000 -90.00000   0.00080     7    8    9      2
     9  -0.02460  -0.00696  -0.01740   0.00696    0.00000 -90.00000   0.00080     8    9   10      2
    10  -0.02460  -0.01392  -0.01740   0.00696    0.00000 -90.00000   0.00080     9   10   16      2
    11  -0.02460  -0.01392   0.01740   0.00696    0.00000  90.00000   0.00080    20   11   12      3
    12  -0.02460  -0.00696   0.01740   0.00696    0.00000  90.00000   0.00080    11   12   13      3
    13  -0.02460   0.00000   0.01740   0.00696    0.00000  90.00000   0.00080    12   13   14      3
    14  -0.02460   0.00696   0.01740   0.00696    0.00000  90.00000   0.00080    13   14   15      3
    15  -0.02460   0.01392   0.01740   0.00696    0.00000  90.00000   0.00080    14   15    1      3
    16  -0.02460  -0.01740  -0.01392   0.00696   90.00000   0.00000   0.00080    10   16   17      4
    17  -0.02460  -0.01740  -0.00696   0.00696   90.00000   0.00000   0.00080    16   17   18      4
    18  -0.02460  -0.01740   0.00000   0.00696   90.00000   0.00000   0.00080    17   18   19      4
    19  -0.02460  -0.01740   0.00696   0.00696   90.00000   0.00000   0.00080    18   19   20      4
    20  -0.02460  -0.01740   0.01392   0.00696   90.00000   0.00000   0.00080    19   20   11      4
    21   0.00000   0.01590   0.01272   0.00636  -90.00000   0.00000   0.00130    35   21   22      5
    22   0.00000   0.01590   0.00636   0.00636  -90.00000   0.00000   0.00130    21   22   23      5
    23   0.00000   0.01590   0.00000   0.00636  -90.00000   0.00000   0.00130    22   23   24      5
    24   0.00000   0.01590  -0.00636   0.00636  -90.00000   0.00000   0.00130    23   24   25      5
    25   0.00000   0.01590  -0.01272   0.00636  -90.00000   0.00000   0.00130    24   25   26      5
    26   0.00000   0.01272  -0.01590   0.00636    0.00000 -90.00000   0.00130    25   26   27      6
    27   0.00000   0.00636  -0.01590   0.00636    0.00000 -90.00000   0.00130    26   27   28      6
    28   0.00000   0.00000  -0.01590   0.00636    0.00000 -90.00000   0.00130    27   28   29      6
    29   0.00000  -0.00636  -0.01590   0.00636    0.00000 -90.00000   0.00130    28   29   30      6
    30   0.00000  -0.01272  -0.01590   0.00636    0.00000 -90.00000   0.00130    29   30   36      6
    31   0.00000  -0.01272   0.01590   0.00636    0.00000  90.00000   0.00130    40   31   32      7
    32   0.00000  -0.00636   0.01590   0.00636    0.00000  90.00000   0.00130    31   32   33      7
    33   0.00000   0.00000   0.01590   0.00636    0.00000  90.00000   0.00130    32   33   34      7
    34   0.00000   0.00636   0.01590   0.00636    0.00000  90.00000   0.00130    33   34   35      7
    35   0.00000   0.01272   0.01590   0.00636    0.00000  90.00000   0.00130    34   35   21      7
    36   0.00000  -0.01590  -0.01272   0.00636   90.00000   0.00000   0.00130    30   36   37      8
    37   0.00000  -0.01590  -0.00636   0.00636   90.00000   0.00000   0.00130    36   37   38      8
    38   0.00000  -0.01590   0.00000   0.00636   90.00000   0.00000   0.00130    37   38   39      8
    39   0.00000  -0.01590   0.00636   0.00636   90.00000   0.00000   0.00130    38   39   40      8
    40   0.00000  -0.01590   0.01272   0.00636   90.00000   0.00000   0.00130    39   40   31      8
    41   0.02460   0.01610   0.01288   0.00644  -90.00000   0.00000   0.00120    55   41   42      9
    42   0.02460   0.01610   0.00644   0.00644  -90.00000   0.00000   0.00120    41   42   43      9
    43   0.02460   0.01610   0.00000   0.00644  -90.00000   0.00000   0.00120    42   43   44      9
    44   0.02460   0.01610  -0.00644   0.00644  -90.00000   0.00000   0.00120    43   44   45      9
    45   0.02460   0.01610  -0.01288   0.00644  -90.00000   0.00000   0.00120    44   45   46      9
    46   0.02460   0.01288  -0.01610   0.00644    0.00000 -90.00000   0.00120    45   46   47     10
    47   0.02460   0.00644  -0.01610   0.00644    0.00000 -90.00000   0.00120    46   47   48     10
    48   0.02460   0.00000  -0.01610   0.00644    0.00000 -90.00000   0.00120    47   48   49     10
    49   0.02460  -0.00644  -0.01610   0.00644    0.00000 -90.00000   0.00120    48   49   50     10
    50   0.02460  -0.01288  -0.01610   0.00644    0.00000 -90.00000   0.00120    49   50   56     10
    51   0.02460  -0.01288   0.01610   0.00644    0.00000  90.00000   0.00120    60   51   52     11
    52   0.02460  -0.00644   0.01610   0.00644    0.00000  90.00000   0.00120    51   52   53     11
    53   0.02460   0.00000   0.01610   0.00644    0.00000  90.00000   0.00120    52   53   54     11
    54   0.02460   0.00644   0.01610   0.00644    0.00000  90.00000   0.00120    53   54   55     11
    55   0.02460   0.01288   0.01610   0.00644    0.00000  90.00000   0.00120    54   55   41     11
    56   0.02460  -0.01610  -0.01288   0.00644   90.00000   0.00000   0.00120    50   56   57     12
    57   0.02460  -0.01610  -0.00644   0.00644   90.00000   0.00000   0.00120    56   57   58     12
    58   0.02460  -0.01610   0.00000   0.00644   90.00000   0.00000   0.00120    57   58   59     12
    59   0.02460  -0.01610   0.00644   0.00644   90.00000   0.00000   0.00120    58   59   60     12
    60   0.02460  -0.01610   0.01288   0.00644   90.00000   0.00000   0.00120    59   60   51     12
    61   0.04910   0.01560   0.01248   0.00624  -90.00000   0.00000   0.00120    75   61   62     13
    62   0.04910   0.01560   0.00624   0.00624  -90.00000   0.00000   0.00120    61   62   63     13
    63   0.04910   0.01560   0.00000   0.00624  -90.00000   0.00000   0.00120    62   63   64     13
    64   0.04910   0.01560  -0.00624   0.00624  -90.00000   0.00000   0.00120    63   64   65     13
    65   0.04910   0.01560  -0.01248   0.00624  -90.00000   0.00000   0.00120    64   65   66     13
    66   0.04910   0.01248  -0.01560   0.00624    0.00000 -90.00000   0.00120    65   66   67     14
    67   0.04910   0.00624  -0.01560   0.00624    0.00000 -90.00000   0.00120    66   67   68     14
    68   0.04910   0.00000  -0.01560   0.00624    0.00000 -90.00000   0.00120    67   68   69     14
    69   0.04910  -0.00624  -0.01560   0.00624    0.00000 -90.00000   0.00120    68   69   70     14
    70   0.04910  -0.01248  -0.01560   0.00624    0.00000 -90.00000   0.00120    69   70   76     14
    71   0.04910  -0.01248   0.01560   0.00624    0.00000  90.00000   0.00120    80   71   72     15
    72   0.04910  -0.00624   0.01560   0.00624    0.00000  90.00000   0.00120    71   72   73     15
    73   0.04910   0.00000   0.01560   0.00624    0.00000  90.00000   0.00120    72   73   74     15
    74   0.04910   0.00624   0.01560   0.00624    0.00000  90.00000   0.00120    73   74   75     15
    75   0.04910   0.01248   0.01560   0.00624    0.00000  90.00000   0.00120    74   75   61     15
    76   0.04910  -0.01560  -0.01248   0.00624   90.00000   0.00000   0.00120    70   76   77     16
    77   0.04910  -0.01560  -0.00624   0.00624   90.00000   0.00000   0.00120    76   77   78     16
    78   0.04910  -0.01560   0.00000   0.00624   90.00000   0.00000   0.00120    77   78   79     16
    79   0.04910  -0.01560   0.00624   0.00624   90.00000   0.00000   0.00120    78   79   80     16
    80   0.04910  -0.01560   0.01248   0.00624   90.00000   0.00000   0.00120    79   80   71     16
    81   0.07370   0.01390   0.01112   0.00556  -90.00000   0.00000   0.00150    95   81   82     17
    82   0.07370   0.01390   0.00556   0.00556  -90.00000   0.00000   0.00150    81   82   83     17
    83   0.07370   0.01390   0.00000   0.00556  -90.00000   0.00000   0.00150    82   83   84     17
    84   0.07370   0.01390  -0.00556   0.00556  -90.00000   0.00000   0.00150    83   84   85     17
    85   0.07370   0.01390  -0.01112   0.00556  -90.00000   0.00000   0.00150    84   85   86     17
    86   0.07370   0.01112  -0.01390   0.00556    0.00000 -90.00000   0.00150    85   86   87     18
    87   0.07370   0.00556  -0.01390   0.00556    0.00000 -90.00000   0.00150    86   87   88     18
    88   0.07370   0.00000  -0.01390   0.00556    0.00000 -90.00000   0.00150    87   88   89     18
    89   0.07370  -0.00556  -0.01390   0.00556    0.00000 -90.00000   0.00150    88   89   90     18
    90   0.07370  -0.01112  -0.01390   0.00556    0.00000 -90.00000   0.00150    89   90   96     18
    91   0.07370  -0.01112   0.01390   0.00556    0.00000  90.00000   0.00150   100   91   92     19
    92   0.07370  -0.00556   0.01390   0.00556    0.00000  90.00000   0.00150    91   92   93     19
    93   0.07370   0.00000   0.01390   0.00556    0.00000  90.00000   0.00150    92   93   94     19
    94   0.07370   0.00556   0.01390   0.00556    0.00000  90.00000   0.00150    93   94   95     19
    95   0.07370   0.01112   0.01390   0.00556    0.00000  90.00000   0.00150    94   95   81     19
    96   0.07370  -0.01390  -0.01112   0.00556   90.00000   0.00000   0.00150    90   96   97     20
    97   0.07370  -0.01390  -0.00556   0.00556   90.00000   0.00000   0.00150    96   97   98     20
    98   0.07370  -0.01390   0.00000   0.00556   90.00000   0.00000   0.00150    97   98   99     20
    99   0.07370  -0.01390   0.00556   0.00556   90.00000   0.00000   0.00150    98   99  100     20
   100   0.07370  -0.01390   0.01112   0.00556   90.00000   0.00000   0.00150    99  100   91     20
   101   0.09830   0.01500   0.01200   0.00600  -90.00000   0.00000   0.00020   115  101  102     21
   102   0.09830   0.01500   0.00600   0.00600  -90.00000   0.00000   0.00020   101  102  103     21
   103   0.09830   0.01500   0.00000   0.00600  -90.00000   0.00000   0.00020   102  103  104     21
   104   0.09830   0.01500  -0.00600   0.00600  -90.00000   0.00000   0.00020   103  104  105     21
   105   0.09830   0.01500  -0.01200   0.00600  -90.00000   0.00000   0.00020   104  105  106     21
   106   0.09830   0.01200  -0.01500   0.00600    0.00000 -90.00000   0.00020   105  106  107     22
   107   0.09830   0.00600  -0.01500   0.00600    0.00000 -90.00000   0.00020   106  107  108     22
   108   0.09830   0.00000  -0.01500   0.00600    0.00000 -90.00000   0.00020   107  108  109     22
   109   0.09830  -0.00600  -0.01500   0.00600    0.00000 -90.00000   0.00020   108  109  110     22
   110   0.09830  -0.01200  -0.01500   0.00600    0.00000 -90.00000   0.00020   109  110  116     22
   111   0.09830  -0.01200   0.01500   0.00600    0.00000  90.00000   0.00020   120  111  112     23
   112   0.09830  -0.00600   0.01500   0.00600    0.00000  90.00000   0.00020   111  112  113     23
   113   0.09830   0.00000   0.01500   0.00600    0.00000  90.00000   0.00020   112  113  114     23
   114   0.09830   0.00600   0.01500   0.00600    0.00000  90.00000   0.00020   113  114  115     23
   115   0.09830   0.01200   0.01500   0.00600    0.00000  90.00000   0.00020   114  115  101     23
   116   0.09830  -0.01500  -0.01200   0.00600   90.00000   0.00000   0.00020   110  116  117     24
   117   0.09830  -0.01500  -0.00600   0.00600   90.00000   0.00000   0.00020   116  117  118     24
   118   0.09830  -0.01500   0.00000   0.00600   90.00000   0.00000   0.00020   117  118  119     24
   119   0.09830  -0.01500   0.00600   0.00600   90.00000   0.00000   0.00020   118  119  120     24
   120   0.09830  -0.01500   0.01200   0.00600   90.00000   0.00000   0.00020   119  120  111     24
   121   0.12290   0.01450   0.01160   0.00580  -90.00000   0.00000   0.00030   135  121  122     25
   122   0.12290   0.01450   0.00580   0.00580  -90.00000   0.00000   0.00030   121  122  123     25
   123   0.12290   0.01450   0.00000   0.00580  -90.00000   0.00000   0.00030   122  123  124     25
   124   0.12290   0.01450  -0.00580   0.00580  -90.00000   0.00000   0.00030   123  124  125     25
   125   0.12290   0.01450  -0.01160   0.00580  -90.00000   0.00000   0.00030   124  125  126     25
   126   0.12290   0.01160  -0.01450   0.00580    0.00000 -90.00000   0.00030   125  126  127     26
   127   0.12290   0.00580  -0.01450   0.00580    0.00000 -90.00000   0.00030   126  127  128     26
   128   0.12290   0.00000  -0.01450   0.00580    0.00000 -90.00000   0.00030   127  128  129     26
   129   0.12290  -0.00580  -0.01450   0.00580    0.00000 -90.00000   0.00030   128  129  130     26
   130   0.12290  -0.01160  -0.01450   0.00580    0.00000 -90.00000   0.00030   129  130  136     26
   131   0.12290  -0.01160   0.01450   0.00580    0.00000  90.00000   0.00030   140  131  132     27
   132   0.12290  -0.00580   0.01450   0.00580    0.00000  90.00000   0.00030   131  132  133     27
   133   0.12290   0.00000   0.01450   0.00580    0.00000  90.00000   0.00030   132  133  134     27
   134   0.12290   0.00580   0.01450   0.00580    0.00000  90.00000   0.00030   133  134  135     27
   135   0.12290   0.01160   0.01450   0.00580    0.00000  90.00000   0.00030   134  135  121     27
   136   0.12290  -0.01450  -0.01160   0.00580   90.00000   0.00000   0.00030   130  136  137     28
   137   0.12290  -0.01450  -0.00580   0.00580   90.00000   0.00000   0.00030   136  137  138     28
   138   0.12290  -0.01450   0.00000   0.00580   90.00000   0.00000   0.00030   137  138  139     28
   139   0.12290  -0.01450   0.00580   0.00580   90.00000   0.00000   0.00030   138  139  140     28
   140   0.12290  -0.01450   0.01160   0.00580   90.00000   0.00000   0.00030   139  140  131     28
   141   0.14740   0.01340   0.01072   0.00536  -90.00000   0.00000   0.00070   155  141  142     29
   142   0.14740   0.01340   0.00536   0.00536  -90.00000   0.00000   0.00070   141  142  143     29
   143   0.14740   0.01340   0.00000   0.00536  -90.00000   0.00000   0.00070   142  143  144     29
   144   0.14740   0.01340  -0.00536   0.00536  -90.00000   0.00000   0.00070   143  144  145     29
   145   0.14740   0.01340  -0.01072   0.00536  -90.00000   0.00000   0.00070   144  145  146     29
   146   0.14740   0.01072  -0.01340   0.00536    0.00000 -90.00000   0.00070   145  146  147     30
   147   0.14740   0.00536  -0.01340   0.00536    0.00000 -90.00000   0.00070   146  147  148     30
   148   0.14740   0.00000  -0.01340   0.00536    0.00000 -90.00000   0.00070   147  148  149     30
   149   0.14740  -0.00536  -0.01340   0.00536    0.00000 -90.00000   0.00070   148  149  150     30
   150   0.14740  -0.01072  -0.01340   0.00536    0.00000 -90.00000   0.00070   149  150  156     30
   151   0.14740  -0.01072   0.01340   0.00536    0.00000  90.00000   0.00070   160  151  152     31
   152   0.14740  -0.00536   0.01340   0.00536    0.00000  90.00000   0.00070   151  152  153     31
   153   0.14740   0.00000   0.01340   0.00536    0.00000  90.00000   0.00070   152  153  154     31
   154   0.14740   0.00536   0.01340   0.00536    0.00000  90.00000   0.00070   153  154  155     31
   155   0.14740   0.01072   0.01340   0.00536    0.00000  90.00000   0.00070   154  155  141     31
   156   0.14740  -0.01340  -0.01072   0.00536   90.00000   0.00000   0.00070   150  156  157     32
   157   0.14740  -0.01340  -0.00536   0.00536   90.00000   0.00000   0.00070   156  157  158     32
   158   0.14740  -0.01340   0.00000   0.00536   90.00000   0.00000   0.00070   157  158  159     32
   159   0.14740  -0.01340   0.00536   0.00536   90.00000   0.00000   0.00070   158  159  160     32
   160   0.14740  -0.01340   0.01072   0.00536   90.00000   0.00000   0.00070   159  160  151     32
   161   0.17200   0.01320   0.01056   0.00528  -90.00000   0.00000   0.00140   175  161  162     33
   162   0.17200   0.01320   0.00528   0.00528  -90.00000   0.00000   0.00140   161  162  163     33
   163   0.17200   0.01320   0.00000   0.00528  -90.00000   0.00000   0.00140   162  163  164     33
   164   0.17200   0.01320  -0.00528   0.00528  -90.00000   0.00000   0.00140   163  164  165     33
   165   0.17200   0.01320  -0.01056   0.00528  -90.00000   0.00000   0.00140   164  165  166     33
   166   0.17200   0.01056  -0.01320   0.00528    0.00000 -90.00000   0.00140   165  166  167     34
   167   0.17200   0.00528  -0.01320   0.00528    0.00000 -90.00000   0.00140   166  167  168     34
   168   0.17200   0.00000  -0.01320   0.00528    0.00000 -90.00000   0.00140   167  168  169     34
   169   0.17200  -0.00528  -0.01320   0.00528    0.00000 -90.00000   0.00140   168  169  170     34
   170   0.17200  -0.01056  -0.01320   0.00528    0.00000 -90.00000   0.00140   169  170  176     34
   171   0.17200  -0.01056   0.01320   0.00528    0.00000  90.00000   0.00140   180  171  172     35
   172   0.17200  -0.00528   0.01320   0.00528    0.00000  90.00000   0.00140   171  172  173     35
   173   0.17200   0.00000   0.01320   0.00528    0.00000  90.00000   0.00140   172  173  174     35
   174   0.17200   0.00528   0.01320   0.00528    0.00000  90.00000   0.00140   173  174  175     35
   175   0.17200   0.01056   0.01320   0.00528    0.00000  90.00000   0.00140   174  175  161     35
   176   0.17200  -0.01320  -0.01056   0.00528   90.00000   0.00000   0.00140   170  176  177     36
   177   0.17200  -0.01320  -0.00528   0.00528   90.00000   0.00000   0.00140   176  177  178     36
   178   0.17200  -0.01320   0.00000   0.00528   90.00000   0.00000   0.00140   177  178  179     36
   179   0.17200  -0.01320   0.00528   0.00528   90.00000   0.00000   0.00140   178  179  180     36
   180   0.17200  -0.01320   0.01056   0.00528   90.00000   0.00000   0.00140   179  180  171     36
   181   0.19660   0.01590   0.01272   0.00636  -90.00000   0.00000   0.00140   195  181  182     37
   182   0.19660   0.01590   0.00636   0.00636  -90.00000   0.00000   0.00140   181  182  183     37
   183   0.19660   0.01590   0.00000   0.00636  -90.00000   0.00000   0.00140   182  183  184     37
   184   0.19660   0.01590  -0.00636   0.00636  -90.00000   0.00000   0.00140   183  184  185     37
   185   0.19660   0.01590  -0.01272   0.00636  -90.00000   0.00000   0.00140   184  185  186     37
   186   0.19660   0.01272  -0.01590   0.00636    0.00000 -90.00000   0.00140   185  186  187     38
   187   0.19660   0.00636  -0.01590   0.00636    0.00000 -90.00000   0.00140   186  187  188     38
   188   0.19660   0.00000  -0.01590   0.00636    0.00000 -90.00000   0.00140   187  188  189     38
   189   0.19660  -0.00636  -0.01590   0.00636    0.00000 -90.00000   0.00140   188  189  190     38
   190   0.19660  -0.01272  -0.01590   0.00636    0.00000 -90.00000   0.00140   189  190  196     38
   191   0.19660  -0.01272   0.01590   0.00636    0.00000  90.00000   0.00140   200  191  192     39
   192   0.19660  -0.00636   0.01590   0.00636    0.00000  90.00000   0.00140   191  192  193     39
   193   0.19660   0.00000   0.01590   0.00636    0.00000  90.00000   0.00140   192  193  194     39
   194   0.19660   0.00636   0.01590   0.00636    0.00000  90.00000   0.00140   193  194  195     39
   195   0.19660   0.01272   0.01590   0.00636    0.00000  90.00000   0.00140   194  195  181     39
   196   0.19660  -0.01590  -0.01272   0.00636   90.00000   0.00000   0.00140   190  196  197     40
   197   0.19660  -0.01590  -0.00636   0.00636   90.00000   0.00000   0.00140   196  197  198     40
   198   0.19660  -0.01590   0.00000   0.00636   90.00000   0.00000   0.00140   197  198  199     40
   199   0.19660  -0.01590   0.00636   0.00636   90.00000   0.00000   0.00140   198  199  200     40
   200   0.19660  -0.01590   0.01272   0.00636   90.00000   0.00000   0.00140   199  200  191     40






 ***** DATA CARD NO.  1   EX   0     5     3     0  1.00000E+00  0.00000E+00  0.00000E+00  0.00000E+00  0.00000E+00  0.00000E+00
 ***** DATA CARD NO.  2   FR   0     1     0     0  2.48400E+03  0.00000E+00  0.00000E+00  0.00000E+00  0.00000E+00  0.00000E+00
 ***** DATA CARD NO.  3   RP   0     1     1  1000  9.00000E+01  0.00000E+00  0.00000E+00  0.00000E+00  0.00000E+00  0.00000E+00




                                 - - - - - - FREQUENCY - - - - - -

                                    FREQUENCY= 2.4840E+03 MHZ
                                    WAVELENGTH= 1.2069E-01 METERS




                    APPROXIMATE INTEGRATION EMPLOYED FOR SEGMENTS MORE THAN   1.000 WAVELENGTHS APART



                               - - - STRUCTURE IMPEDANCE LOADING - - -

                                   THIS STRUCTURE IS NOT LOADED



                                  - - - ANTENNA ENVIRONMENT - - -

                                            FREE SPACE



                                - - - MATRIX TIMING - - -

                        FILL=    0.109 SEC.,  FACTOR=    0.016 SEC.



                                          - - - ANTENNA INPUT PARAMETERS - - -

   TAG   SEG.    VOLTAGE (VOLTS)         CURRENT (AMPS)         IMPEDANCE (OHMS)        ADMITTANCE (MHOS)      POWER
   NO.   NO.    REAL        IMAG.       REAL        IMAG.       REAL        IMAG.       REAL        IMAG.     (WATTS)
     5    23 1.00000E+00 0.00000E+00 1.44428E-02 9.72640E-03 4.76350E+01-3.20796E+01 1.44428E-02 9.72640E-03 7.22138E-03



                             - - - CURRENTS AND LOCATION - - -

                                 DISTANCES IN WAVELENGTHS


  SEG.  TAG    COORD. OF SEG. CENTER     SEG.            - - - CURRENT (AMPS) - - -
  NO.   NO.     X        Y        Z      LENGTH     REAL        IMAG.       MAG.        PHASE
     1    1  -0.2038   0.1442   0.1153  0.05767  -5.0741E-03  2.5726E-03  5.6890E-03  153.114
     2    1  -0.2038   0.1442   0.0577  0.05767  -5.9499E-03  2.9930E-03  6.6603E-03  153.296
     3    1  -0.2038   0.1442   0.0000  0.05767  -6.2659E-03  3.1337E-03  7.0058E-03  153.429
     4    1  -0.2038   0.1442  -0.0577  0.05767  -5.9499E-03  2.9930E-03  6.6603E-03  153.296
     5    1  -0.2038   0.1442  -0.1153  0.05767  -5.0741E-03  2.5726E-03  5.6890E-03  153.114
     6    2  -0.2038   0.1153  -0.1442  0.05767  -3.7897E-03  1.8924E-03  4.2359E-03  153.465
     7    2  -0.2038   0.0577  -0.1442  0.05767  -2.0197E-03  1.0551E-03  2.2786E-03  152.417
     8    2  -0.2038   0.0000  -0.1442  0.05767   3.9628E-05  1.2126E-04  1.2757E-04   71.902
     9    2  -0.2038  -0.0577  -0.1442  0.05767   2.1029E-03 -8.2225E-04  2.2579E-03  -21.356
    10    2  -0.2038  -0.1153  -0.1442  0.05767   3.8853E-03 -1.6838E-03  4.2344E-03  -23.431
    11    3  -0.2038  -0.1153   0.1442  0.05767   3.8853E-03 -1.6838E-03  4.2344E-03  -23.431
    12    3  -0.2038  -0.0577   0.1442  0.05767   2.1029E-03 -8.2225E-04  2.2579E-03  -21.356
    13    3  -0.2038   0.0000   0.1442  0.05767   3.9628E-05  1.2126E-04  1.2757E-04   71.902
    14    3  -0.2038   0.0577   0.1442  0.05767  -2.0197E-03  1.0551E-03  2.2786E-03  152.417
    15    3  -0.2038   0.1153   0.1442  0.05767  -3.7897E-03  1.8924E-03  4.2359E-03  153.465
    16    4  -0.2038  -0.1442  -0.1153  0.05767   5.1908E-03 -2.3903E-03  5.7147E-03  -24.726
    17    4  -0.2038  -0.1442  -0.0577  0.05767   6.0819E-03 -2.8377E-03  6.7114E-03  -25.012
    18    4  -0.2038  -0.1442   0.0000  0.05767   6.4032E-03 -2.9901E-03  7.0669E-03  -25.032
    19    4  -0.2038  -0.1442   0.0577  0.05767   6.0819E-03 -2.8377E-03  6.7114E-03  -25.012
    20    4  -0.2038  -0.1442   0.1153  0.05767   5.1908E-03 -2.3903E-03  5.7147E-03  -24.726
    21    5   0.0000   0.1317   0.1054  0.05270   1.1637E-02  5.8615E-03  1.3030E-02   26.735
    22    5   0.0000   0.1317   0.0527  0.05270   1.3714E-02  7.9224E-03  1.5838E-02   30.015
    23    5   0.0000   0.1317   0.0000  0.05270   1.4443E-02  9.7264E-03  1.7413E-02   33.958
    24    5   0.0000   0.1317  -0.0527  0.05270   1.3714E-02  7.9224E-03  1.5838E-02   30.015
    25    5   0.0000   0.1317  -0.1054  0.05270   1.1637E-02  5.8615E-03  1.3030E-02   26.735
    26    6   0.0000   0.1054  -0.1317  0.05270   8.4145E-03  3.6859E-03  9.1864E-03   23.655
    27    6   0.0000   0.0527  -0.1317  0.05270   4.4607E-03  1.1437E-03  4.6050E-03   14.381
    28    6   0.0000   0.0000  -0.1317  0.05270   5.2922E-05 -1.5709E-03  1.5718E-03  -88.071
    29    6   0.0000  -0.0527  -0.1317  0.05270  -4.3510E-03 -4.1208E-03  5.9927E-03 -136.557
    30    6   0.0000  -0.1054  -0.1317  0.05270  -8.2923E-03 -6.2007E-03  1.0354E-02 -143.212
    31    7   0.0000  -0.1054   0.1317  0.05270  -8.2923E-03 -6.2007E-03  1.0354E-02 -143.212
    32    7   0.0000  -0.0527   0.1317  0.05270  -4.3510E-03 -4.1208E-03  5.9927E-03 -136.557
    33    7   0.0000   0.0000   0.1317  0.05270   5.2922E-05 -1.5709E-03  1.5718E-03  -88.071
    34    7   0.0000   0.0527   0.1317  0.05270   4.4607E-03  1.1437E-03  4.6050E-03   14.381
    35    7   0.0000   0.1054   0.1317  0.05270   8.4145E-03  3.6859E-03  9.1864E-03   23.655
    36    8   0.0000  -0.1317  -0.1054  0.05270  -1.1490E-02 -7.6626E-03  1.3811E-02 -146.301
    37    8   0.0000  -0.1317  -0.0527  0.05270  -1.3550E-02 -8.6529E-03  1.6077E-02 -147.438
    38    8   0.0000  -0.1317   0.0000  0.05270  -1.4273E-02 -9.0118E-03  1.6880E-02 -147.733
    39    8   0.0000  -0.1317   0.0527  0.05270  -1.3550E-02 -8.6529E-03  1.6077E-02 -147.438
    40    8   0.0000  -0.1317   0.1054  0.05270  -1.1490E-02 -7.6626E-03  1.3811E-02 -146.301
    41    9   0.2038   0.1334   0.1067  0.05336  -1.0802E-02 -1.9480E-02  2.2274E-02 -119.010
    42    9   0.2038   0.1334   0.0534  0.05336  -1.2727E-02 -2.2981E-02  2.6270E-02 -118.978
    43    9   0.2038   0.1334   0.0000  0.05336  -1.3403E-02 -2.4215E-02  2.7677E-02 -118.964
    44    9   0.2038   0.1334  -0.0534  0.05336  -1.2727E-02 -2.2981E-02  2.6270E-02 -118.978
    45    9   0.2038   0.1334  -0.1067  0.05336  -1.0802E-02 -1.9480E-02  2.2274E-02 -119.010
    46   10   0.2038   0.1067  -0.1334  0.05336  -7.8257E-03 -1.4104E-02  1.6130E-02 -119.023
    47   10   0.2038   0.0534  -0.1334  0.05336  -4.1144E-03 -7.3869E-03  8.4554E-03 -119.117
    48   10   0.2038   0.0000  -0.1334  0.05336   4.3423E-05  1.3774E-04  1.4443E-04   72.503
    49   10   0.2038  -0.0534  -0.1334  0.05336   4.2043E-03  7.6526E-03  8.7315E-03   61.216
    50   10   0.2038  -0.1067  -0.1334  0.05336   7.9257E-03  1.4345E-02  1.6389E-02   61.080
    51   11   0.2038  -0.1067   0.1334  0.05336   7.9257E-03  1.4345E-02  1.6389E-02   61.080
    52   11   0.2038  -0.0534   0.1334  0.05336   4.2043E-03  7.6526E-03  8.7315E-03   61.216
    53   11   0.2038   0.0000   0.1334  0.05336   4.3423E-05  1.3774E-04  1.4443E-04   72.503
    54   11   0.2038   0.0534   0.1334  0.05336  -4.1144E-03 -7.3869E-03  8.4554E-03 -119.117
    55   11   0.2038   0.1067   0.1334  0.05336  -7.8257E-03 -1.4104E-02  1.6130E-02 -119.023
    56   12   0.2038  -0.1334  -0.1067  0.05336   1.0921E-02  1.9694E-02  2.2519E-02   60.989
    57   12   0.2038  -0.1334  -0.0534  0.05336   1.2861E-02  2.3170E-02  2.6500E-02   60.967
    58   12   0.2038  -0.1334   0.0000  0.05336   1.3541E-02  2.4392E-02  2.7899E-02   60.965
    59   12   0.2038  -0.1334   0.0534  0.05336   1.2861E-02  2.3170E-02  2.6500E-02   60.967
    60   12   0.2038  -0.1334   0.1067  0.05336   1.0921E-02  1.9694E-02  2.2519E-02   60.989
    61   13   0.4068   0.1293   0.1034  0.05170   8.5752E-04  1.7797E-02  1.7818E-02   87.241
    62   13   0.4068   0.1293   0.0517  0.05170   1.0127E-03  2.0984E-02  2.1008E-02   87.237
    63   13   0.4068   0.1293   0.0000  0.05170   1.0712E-03  2.2093E-02  2.2119E-02   87.224
    64   13   0.4068   0.1293  -0.0517  0.05170   1.0127E-03  2.0984E-02  2.1008E-02   87.237
    65   13   0.4068   0.1293  -0.1034  0.05170   8.5752E-04  1.7797E-02  1.7818E-02   87.241
    66   14   0.4068   0.1034  -0.1293  0.05170   6.4846E-04  1.2799E-02  1.2816E-02   87.100
    67   14   0.4068   0.0517  -0.1293  0.05170   3.5997E-04  6.7288E-03  6.7385E-03   86.938
    68   14   0.4068   0.0000  -0.1293  0.05170   2.5084E-05  7.6418E-06  2.6222E-05   16.943
    69   14   0.4068  -0.0517  -0.1293  0.05170  -3.0876E-04 -6.7156E-03  6.7227E-03  -92.632
    70   14   0.4068  -0.1034  -0.1293  0.05170  -5.9372E-04 -1.2792E-02  1.2806E-02  -92.657
    71   15   0.4068  -0.1034   0.1293  0.05170  -5.9372E-04 -1.2792E-02  1.2806E-02  -92.657
    72   15   0.4068  -0.0517   0.1293  0.05170  -3.0876E-04 -6.7156E-03  6.7227E-03  -92.632
    73   15   0.4068   0.0000   0.1293  0.05170   2.5084E-05  7.6417E-06  2.6222E-05   16.943
    74   15   0.4068   0.0517   0.1293  0.05170   3.5997E-04  6.7288E-03  6.7385E-03   86.938
    75   15   0.4068   0.1034   0.1293  0.05170   6.4846E-04  1.2799E-02  1.2816E-02   87.100
    76   16   0.4068  -0.1293  -0.1034  0.05170  -7.9546E-04 -1.7800E-02  1.7818E-02  -92.559
    77   16   0.4068  -0.1293  -0.0517  0.05170  -9.4529E-04 -2.0993E-02  2.1014E-02  -92.578
    78   16   0.4068  -0.1293   0.0000  0.05170  -1.0019E-03 -2.2104E-02  2.2127E-02  -92.595
    79   16   0.4068  -0.1293   0.0517  0.05170  -9.4529E-04 -2.0993E-02  2.1014E-02  -92.578
    80   16   0.4068  -0.1293   0.1034  0.05170  -7.9546E-04 -1.7800E-02  1.7818E-02  -92.559
    81   17   0.6106   0.1152   0.0921  0.04607   2.9778E-03  1.7720E-03  3.4651E-03   30.755
    82   17   0.6106   0.1152   0.0461  0.04607   3.5054E-03  2.0832E-03  4.0777E-03   30.722
    83   17   0.6106   0.1152   0.0000  0.04607   3.6827E-03  2.1843E-03  4.2818E-03   30.673
    84   17   0.6106   0.1152  -0.0461  0.04607   3.5054E-03  2.0832E-03  4.0777E-03   30.722
    85   17   0.6106   0.1152  -0.0921  0.04607   2.9778E-03  1.7720E-03  3.4651E-03   30.755
    86   18   0.6106   0.0921  -0.1152  0.04607   2.0567E-03  1.1970E-03  2.3797E-03   30.201
    87   18   0.6106   0.0461  -0.1152  0.04607   1.0637E-03  6.0650E-04  1.2245E-03   29.691
    88   18   0.6106   0.0000  -0.1152  0.04607   6.2509E-06 -9.7896E-06  1.1615E-05  -57.441
    89   18   0.6106  -0.0461  -0.1152  0.04607  -1.0515E-03 -6.2700E-04  1.2243E-03 -149.193
    90   18   0.6106  -0.0921  -0.1152  0.04607  -2.0454E-03 -1.2205E-03  2.3819E-03 -149.176
    91   19   0.6106  -0.0921   0.1152  0.04607  -2.0454E-03 -1.2205E-03  2.3819E-03 -149.176
    92   19   0.6106  -0.0461   0.1152  0.04607  -1.0515E-03 -6.2700E-04  1.2243E-03 -149.193
    93   19   0.6106   0.0000   0.1152  0.04607   6.2509E-06 -9.7896E-06  1.1615E-05  -57.441
    94   19   0.6106   0.0461   0.1152  0.04607   1.0637E-03  6.0650E-04  1.2245E-03   29.691
    95   19   0.6106   0.0921   0.1152  0.04607   2.0567E-03  1.1970E-03  2.3797E-03   30.201
    96   20   0.6106  -0.1152  -0.0921  0.04607  -2.9678E-03 -1.8013E-03  3.4717E-03 -148.745
    97   20   0.6106  -0.1152  -0.0461  0.04607  -3.4961E-03 -2.1163E-03  4.0868E-03 -148.812
    98   20   0.6106  -0.1152   0.0000  0.04607  -3.6736E-03 -2.2187E-03  4.2916E-03 -148.870
    99   20   0.6106  -0.1152   0.0461  0.04607  -3.4961E-03 -2.1163E-03  4.0868E-03 -148.812
   100   20   0.6106  -0.1152   0.0921  0.04607  -2.9678E-03 -1.8013E-03  3.4717E-03 -148.745
   101   21   0.8145   0.1243   0.0994  0.04971   1.8951E-03 -9.3565E-03  9.5465E-03  -78.550
   102   21   0.8145   0.1243   0.0497  0.04971   2.2361E-03 -1.1038E-02  1.1262E-02  -78.548
   103   21   0.8145   0.1243   0.0000  0.04971   2.3535E-03 -1.1616E-02  1.1852E-02  -78.547
   104   21   0.8145   0.1243  -0.0497  0.04971   2.2361E-03 -1.1038E-02  1.1262E-02  -78.548
   105   21   0.8145   0.1243  -0.0994  0.04971   1.8951E-03 -9.3565E-03  9.5465E-03  -78.550
   106   22   0.8145   0.0994  -0.1243  0.04971   1.3649E-03 -6.7431E-03  6.8798E-03  -78.557
   107   22   0.8145   0.0497  -0.1243  0.04971   7.1289E-04 -3.5285E-03  3.5998E-03  -78.578
   108   22   0.8145   0.0000  -0.1243  0.04971  -2.3235E-06 -2.9164E-06  3.7288E-06 -128.544
   109   22   0.8145  -0.0497  -0.1243  0.04971  -7.1801E-04  3.5226E-03  3.5950E-03  101.521
   110   22   0.8145  -0.0994  -0.1243  0.04971  -1.3714E-03  6.7367E-03  6.8748E-03  101.507
   111   23   0.8145  -0.0994   0.1243  0.04971  -1.3714E-03  6.7367E-03  6.8748E-03  101.507
   112   23   0.8145  -0.0497   0.1243  0.04971  -7.1801E-04  3.5226E-03  3.5950E-03  101.521
   113   23   0.8145   0.0000   0.1243  0.04971  -2.3235E-06 -2.9163E-06  3.7287E-06 -128.545
   114   23   0.8145   0.0497   0.1243  0.04971   7.1289E-04 -3.5285E-03  3.5998E-03  -78.578
   115   23   0.8145   0.0994   0.1243  0.04971   1.3649E-03 -6.7431E-03  6.8798E-03  -78.557
   116   24   0.8145  -0.1243  -0.0994  0.04971  -1.9038E-03  9.3494E-03  9.5413E-03  101.510
   117   24   0.8145  -0.1243  -0.0497  0.04971  -2.2464E-03  1.1030E-02  1.1256E-02  101.512
   118   24   0.8145  -0.1243   0.0000  0.04971  -2.3643E-03  1.1608E-02  1.1847E-02  101.512
   119   24   0.8145  -0.1243   0.0497  0.04971  -2.2464E-03  1.1030E-02  1.1256E-02  101.512
   120   24   0.8145  -0.1243   0.0994  0.04971  -1.9038E-03  9.3494E-03  9.5413E-03  101.510
   121   25   1.0183   0.1201   0.0961  0.04806  -2.8720E-03 -2.1841E-03  3.6082E-03 -142.748
   122   25   1.0183   0.1201   0.0481  0.04806  -3.3949E-03 -2.5809E-03  4.2645E-03 -142.757
   123   25   1.0183   0.1201   0.0000  0.04806  -3.5740E-03 -2.7151E-03  4.4884E-03 -142.777
   124   25   1.0183   0.1201  -0.0481  0.04806  -3.3949E-03 -2.5809E-03  4.2645E-03 -142.757
   125   25   1.0183   0.1201  -0.0961  0.04806  -2.8720E-03 -2.1841E-03  3.6082E-03 -142.748
   126   26   1.0183   0.0961  -0.1201  0.04806  -2.0556E-03 -1.5536E-03  2.5766E-03 -142.918
   127   26   1.0183   0.0481  -0.1201  0.04806  -1.0714E-03 -8.0530E-04  1.3403E-03 -143.070
   128   26   1.0183   0.0000  -0.1201  0.04806  -2.6808E-06  9.1501E-07  2.8327E-06  161.154
   129   26   1.0183  -0.0481  -0.1201  0.04806   1.0658E-03  8.0737E-04  1.3371E-03   37.145
   130   26   1.0183  -0.0961  -0.1201  0.04806   2.0493E-03  1.5564E-03  2.5733E-03   37.216
   131   27   1.0183  -0.0961   0.1201  0.04806   2.0493E-03  1.5564E-03  2.5733E-03   37.216
   132   27   1.0183  -0.0481   0.1201  0.04806   1.0658E-03  8.0737E-04  1.3371E-03   37.145
   133   27   1.0183   0.0000   0.1201  0.04806  -2.6808E-06  9.1504E-07  2.8327E-06  161.154
   134   27   1.0183   0.0481   0.1201  0.04806  -1.0714E-03 -8.0530E-04  1.3403E-03 -143.070
   135   27   1.0183   0.0961   0.1201  0.04806  -2.0556E-03 -1.5536E-03  2.5766E-03 -142.918
   136   28   1.0183  -0.1201  -0.0961  0.04806   2.8646E-03  2.1881E-03  3.6047E-03   37.373
   137   28   1.0183  -0.1201  -0.0481  0.04806   3.3867E-03  2.5856E-03  4.2609E-03   37.361
   138   28   1.0183  -0.1201   0.0000  0.04806   3.5656E-03  2.7201E-03  4.4847E-03   37.340
   139   28   1.0183  -0.1201   0.0481  0.04806   3.3867E-03  2.5856E-03  4.2609E-03   37.361
   140   28   1.0183  -0.1201   0.0961  0.04806   2.8646E-03  2.1881E-03  3.6047E-03   37.373
   141   29   1.2213   0.1110   0.0888  0.04441  -1.6569E-03  4.4582E-03  4.7562E-03  110.387
   142   29   1.2213   0.1110   0.0444  0.04441  -1.9641E-03  5.2779E-03  5.6315E-03  110.413
   143   29   1.2213   0.1110   0.0000  0.04441  -2.0673E-03  5.5545E-03  5.9267E-03  110.414
   144   29   1.2213   0.1110  -0.0444  0.04441  -1.9641E-03  5.2779E-03  5.6315E-03  110.413
   145   29   1.2213   0.1110  -0.0888  0.04441  -1.6569E-03  4.4582E-03  4.7562E-03  110.387
   146   30   1.2213   0.0888  -0.1110  0.04441  -1.1585E-03  3.1370E-03  3.3441E-03  110.269
   147   30   1.2213   0.0444  -0.1110  0.04441  -5.9500E-04  1.6186E-03  1.7245E-03  110.184
   148   30   1.2213   0.0000  -0.1110  0.04441   5.1609E-08  2.6280E-06  2.6285E-06   88.875
   149   30   1.2213  -0.0444  -0.1110  0.04441   5.9519E-04 -1.6131E-03  1.7194E-03  -69.748
   150   30   1.2213  -0.0888  -0.1110  0.04441   1.1589E-03 -3.1309E-03  3.3385E-03  -69.688
   151   31   1.2213  -0.0888   0.1110  0.04441   1.1589E-03 -3.1309E-03  3.3385E-03  -69.688
   152   31   1.2213  -0.0444   0.1110  0.04441   5.9519E-04 -1.6131E-03  1.7194E-03  -69.748
   153   31   1.2213   0.0000   0.1110  0.04441   5.1601E-08  2.6280E-06  2.6285E-06   88.875
   154   31   1.2213   0.0444   0.1110  0.04441  -5.9500E-04  1.6186E-03  1.7245E-03  110.184
   155   31   1.2213   0.0888   0.1110  0.04441  -1.1585E-03  3.1370E-03  3.3441E-03  110.269
   156   32   1.2213  -0.1110  -0.0888  0.04441   1.6578E-03 -4.4510E-03  4.7497E-03  -69.573
   157   32   1.2213  -0.1110  -0.0444  0.04441   1.9653E-03 -5.2699E-03  5.6245E-03  -69.548
   158   32   1.2213  -0.1110   0.0000  0.04441   2.0685E-03 -5.5463E-03  5.9195E-03  -69.547
   159   32   1.2213  -0.1110   0.0444  0.04441   1.9653E-03 -5.2699E-03  5.6245E-03  -69.548
   160   32   1.2213  -0.1110   0.0888  0.04441   1.6578E-03 -4.4510E-03  4.7497E-03  -69.573
   161   33   1.4251   0.1094   0.0875  0.04375   3.6575E-04  4.9808E-03  4.9942E-03   85.800
   162   33   1.4251   0.1094   0.0437  0.04375   4.2535E-04  5.8724E-03  5.8878E-03   85.857
   163   33   1.4251   0.1094   0.0000  0.04375   4.4432E-04  6.1741E-03  6.1900E-03   85.884
   164   33   1.4251   0.1094  -0.0437  0.04375   4.2535E-04  5.8724E-03  5.8878E-03   85.857
   165   33   1.4251   0.1094  -0.0875  0.04375   3.6575E-04  4.9808E-03  4.9942E-03   85.800
   166   34   1.4251   0.0875  -0.1094  0.04375   2.5088E-04  3.4460E-03  3.4551E-03   85.836
   167   34   1.4251   0.0437  -0.1094  0.04375   1.2966E-04  1.7771E-03  1.7818E-03   85.827
   168   34   1.4251   0.0000  -0.1094  0.04375   2.3572E-06  9.0639E-07  2.5255E-06   21.033
   169   34   1.4251  -0.0437  -0.1094  0.04375  -1.2477E-04 -1.7752E-03  1.7796E-03  -94.020
   170   34   1.4251  -0.0875  -0.1094  0.04375  -2.4540E-04 -3.4442E-03  3.4530E-03  -94.075
   171   35   1.4251  -0.0875   0.1094  0.04375  -2.4540E-04 -3.4442E-03  3.4530E-03  -94.075
   172   35   1.4251  -0.0437   0.1094  0.04375  -1.2477E-04 -1.7752E-03  1.7796E-03  -94.020
   173   35   1.4251   0.0000   0.1094  0.04375   2.3572E-06  9.0638E-07  2.5254E-06   21.033
   174   35   1.4251   0.0437   0.1094  0.04375   1.2966E-04  1.7771E-03  1.7818E-03   85.827
   175   35   1.4251   0.0875   0.1094  0.04375   2.5088E-04  3.4460E-03  3.4551E-03   85.836
   176   36   1.4251  -0.1094  -0.0875  0.04375  -3.5909E-04 -4.9790E-03  4.9919E-03  -94.125
   177   36   1.4251  -0.1094  -0.0437  0.04375  -4.1793E-04 -5.8706E-03  5.8855E-03  -94.072
   178   36   1.4251  -0.1094   0.0000  0.04375  -4.3664E-04 -6.1722E-03  6.1877E-03  -94.046
   179   36   1.4251  -0.1094   0.0437  0.04375  -4.1793E-04 -5.8706E-03  5.8855E-03  -94.072
   180   36   1.4251  -0.1094   0.0875  0.04375  -3.5909E-04 -4.9790E-03  4.9919E-03  -94.125
   181   37   1.6289   0.1317   0.1054  0.05270   3.5977E-03 -8.4973E-03  9.2276E-03  -67.053
   182   37   1.6289   0.1317   0.0527  0.05270   4.2310E-03 -1.0010E-02  1.0868E-02  -67.088
   183   37   1.6289   0.1317   0.0000  0.05270   4.4481E-03 -1.0536E-02  1.1437E-02  -67.112
   184   37   1.6289   0.1317  -0.0527  0.05270   4.2310E-03 -1.0010E-02  1.0868E-02  -67.088
   185   37   1.6289   0.1317  -0.1054  0.05270   3.5977E-03 -8.4973E-03  9.2276E-03  -67.053
   186   38   1.6289   0.1054  -0.1317  0.05270   2.5670E-03 -6.0914E-03  6.6102E-03  -67.149
   187   38   1.6289   0.0527  -0.1317  0.05270   1.3460E-03 -3.2035E-03  3.4748E-03  -67.209
   188   38   1.6289   0.0000  -0.1317  0.05270   9.5478E-07 -1.2953E-06  1.6092E-06  -53.606
   189   38   1.6289  -0.0527  -0.1317  0.05270  -1.3441E-03  3.2006E-03  3.4714E-03  112.779
   190   38   1.6289  -0.1054  -0.1317  0.05270  -2.5647E-03  6.0877E-03  6.6059E-03  112.846
   191   39   1.6289  -0.1054   0.1317  0.05270  -2.5647E-03  6.0877E-03  6.6059E-03  112.846
   192   39   1.6289  -0.0527   0.1317  0.05270  -1.3441E-03  3.2006E-03  3.4714E-03  112.779
   193   39   1.6289   0.0000   0.1317  0.05270   9.5479E-07 -1.2953E-06  1.6092E-06  -53.605
   194   39   1.6289   0.0527   0.1317  0.05270   1.3460E-03 -3.2035E-03  3.4748E-03  -67.209
   195   39   1.6289   0.1054   0.1317  0.05270   2.5670E-03 -6.0914E-03  6.6102E-03  -67.149
   196   40   1.6289  -0.1317  -0.1054  0.05270  -3.5950E-03  8.4921E-03  9.2217E-03  112.945
   197   40   1.6289  -0.1317  -0.0527  0.05270  -4.2279E-03  1.0004E-02  1.0861E-02  112.910
   198   40   1.6289  -0.1317   0.0000  0.05270  -4.4450E-03  1.0530E-02  1.1430E-02  112.886
   199   40   1.6289  -0.1317   0.0527  0.05270  -4.2279E-03  1.0004E-02  1.0861E-02  112.910
   200   40   1.6289  -0.1317   0.1054  0.05270  -3.5950E-03  8.4921E-03  9.2217E-03  112.945



                                        - - - POWER BUDGET - - -

                                           INPUT POWER   = 7.2214E-03 WATTS
                                           RADIATED POWER= 7.2214E-03 WATTS
                                           STRUCTURE LOSS= 0.0000E+00 WATTS
                                           NETWORK LOSS  = 0.0000E+00 WATTS
                                           EFFICIENCY    = 100.00 PERCENT



                                                - - - RADIATION PATTERNS - - -

  - - ANGLES - -           - POWER GAINS -       - - - POLARIZATION - - -    - - - E(THETA) - - -    - - - E(PHI) - - -
  THETA     PHI        VERT.   HOR.    TOTAL      AXIAL     TILT   SENSE     MAGNITUDE    PHASE      MAGNITUDE    PHASE 
 DEGREES  DEGREES       DB      DB      DB        RATIO     DEG.              VOLTS/M    DEGREES      VOLTS/M    DEGREES
   90.00     0.00      13.86 -172.53   13.86    0.00000     0.00  LINEAR    3.24679E+00   165.37    1.55555E-09  -149.92






 ***** DATA CARD NO.  4   EN   0     0     0     0  0.00000E+00  0.00000E+00  0.00000E+00  0.00000E+00  0.00000E+00  0.00000E+00

 RUN TIME =     0.125
