1



                                 *********************************************

                                    NUMERICAL ELECTROMAGNETICS CODE (NEC-2D)

                                 *********************************************




                                     - - - - COMMENTS - - - -


                          ECE 6370 Homework 9                                                        
                          Caitlyn Caggia                                                             
                          Yagi Uda Array with 10 Elements                                            
                          File Generated by MatLab                                                   




                                 - - - STRUCTURE SPECIFICATION - - -

                                     COORDINATES MUST BE INPUT IN
                                     METERS OR BE SCALED TO METERS
                                     BEFORE STRUCTURE INPUT IS ENDED


  WIRE                                                                               NO. OF    FIRST  LAST     TAG
  NO.        X1         Y1         Z1          X2         Y2         Z2      RADIUS   SEG.     SEG.   SEG.     NO.
     1   -0.02460    0.01740    0.01740    -0.02460    0.01740   -0.01740    0.00080      5        1     5       1
     2   -0.02460    0.01740   -0.01740    -0.02460   -0.01740   -0.01740    0.00080      5        6    10       2
     3   -0.02460   -0.01740    0.01740    -0.02460    0.01740    0.01740    0.00080      5       11    15       3
     4   -0.02460   -0.01740   -0.01740    -0.02460   -0.01740    0.01740    0.00080      5       16    20       4
     5    0.00000    0.01590    0.01590     0.00000    0.01590   -0.01590    0.00130      5       21    25       5
     6    0.00000    0.01590   -0.01590     0.00000   -0.01590   -0.01590    0.00130      5       26    30       6
     7    0.00000   -0.01590    0.01590     0.00000    0.01590    0.01590    0.00130      5       31    35       7
     8    0.00000   -0.01590   -0.01590     0.00000   -0.01590    0.01590    0.00130      5       36    40       8
     9    0.02460    0.01610    0.01610     0.02460    0.01610   -0.01610    0.00120      5       41    45       9
    10    0.02460    0.01610   -0.01610     0.02460   -0.01610   -0.01610    0.00120      5       46    50      10
    11    0.02460   -0.01610    0.01610     0.02460    0.01610    0.01610    0.00120      5       51    55      11
    12    0.02460   -0.01610   -0.01610     0.02460   -0.01610    0.01610    0.00120      5       56    60      12
    13    0.04910    0.01560    0.01560     0.04910    0.01560   -0.01560    0.00120      5       61    65      13
    14    0.04910    0.01560   -0.01560     0.04910   -0.01560   -0.01560    0.00120      5       66    70      14
    15    0.04910   -0.01560    0.01560     0.04910    0.01560    0.01560    0.00120      5       71    75      15
    16    0.04910   -0.01560   -0.01560     0.04910   -0.01560    0.01560    0.00120      5       76    80      16
    17    0.07370    0.01390    0.01390     0.07370    0.01390   -0.01390    0.00150      5       81    85      17
    18    0.07370    0.01390   -0.01390     0.07370   -0.01390   -0.01390    0.00150      5       86    90      18
    19    0.07370   -0.01390    0.01390     0.07370    0.01390    0.01390    0.00150      5       91    95      19
    20    0.07370   -0.01390   -0.01390     0.07370   -0.01390    0.01390    0.00150      5       96   100      20
    21    0.09830    0.01500    0.01500     0.09830    0.01500   -0.01500    0.00020      5      101   105      21
    22    0.09830    0.01500   -0.01500     0.09830   -0.01500   -0.01500    0.00020      5      106   110      22
    23    0.09830   -0.01500    0.01500     0.09830    0.01500    0.01500    0.00020      5      111   115      23
    24    0.09830   -0.01500   -0.01500     0.09830   -0.01500    0.01500    0.00020      5      116   120      24
    25    0.12290    0.01450    0.01450     0.12290    0.01450   -0.01450    0.00030      5      121   125      25
    26    0.12290    0.01450   -0.01450     0.12290   -0.01450   -0.01450    0.00030      5      126   130      26
    27    0.12290   -0.01450    0.01450     0.12290    0.01450    0.01450    0.00030      5      131   135      27
    28    0.12290   -0.01450   -0.01450     0.12290   -0.01450    0.01450    0.00030      5      136   140      28
    29    0.14740    0.01340    0.01340     0.14740    0.01340   -0.01340    0.00070      5      141   145      29
    30    0.14740    0.01340   -0.01340     0.14740   -0.01340   -0.01340    0.00070      5      146   150      30
    31    0.14740   -0.01340    0.01340     0.14740    0.01340    0.01340    0.00070      5      151   155      31
    32    0.14740   -0.01340   -0.01340     0.14740   -0.01340    0.01340    0.00070      5      156   160      32
    33    0.17200    0.01320    0.01320     0.17200    0.01320   -0.01320    0.00140      5      161   165      33
    34    0.17200    0.01320   -0.01320     0.17200   -0.01320   -0.01320    0.00140      5      166   170      34
    35    0.17200   -0.01320    0.01320     0.17200    0.01320    0.01320    0.00140      5      171   175      35
    36    0.17200   -0.01320   -0.01320     0.17200   -0.01320    0.01320    0.00140      5      176   180      36
    37    0.19660    0.01590    0.01590     0.19660    0.01590   -0.01590    0.00140      5      181   185      37
    38    0.19660    0.01590   -0.01590     0.19660   -0.01590   -0.01590    0.00140      5      186   190      38
    39    0.19660   -0.01590    0.01590     0.19660    0.01590    0.01590    0.00140      5      191   195      39
    40    0.19660   -0.01590   -0.01590     0.19660   -0.01590    0.01590    0.00140      5      196   200      40

   TOTAL SEGMENTS USED=  200     NO. SEG. IN A SYMMETRIC CELL=  200     SYMMETRY FLAG=  0


         - MULTIPLE WIRE JUNCTIONS -
 JUNCTION    SEGMENTS  (- FOR END 1, + FOR END 2)
  NONE




                                 - - - - SEGMENTATION DATA - - - -

                                        COORDINATES IN METERS

                         I+ AND I- INDICATE THE SEGMENTS BEFORE AND AFTER I


  SEG.   COORDINATES OF SEG. CENTER     SEG.     ORIENTATION ANGLES    WIRE    CONNECTION DATA   TAG
  NO.       X         Y         Z       LENGTH     ALPHA     BETA      RADIUS    I-   I    I+    NO.
     1  -0.02460   0.01740   0.01392   0.00696  -90.00000   0.00000   0.00080    15    1    2      1
     2  -0.02460   0.01740   0.00696   0.00696  -90.00000   0.00000   0.00080     1    2    3      1
     3  -0.02460   0.01740   0.00000   0.00696  -90.00000   0.00000   0.00080     2    3    4      1
     4  -0.02460   0.01740  -0.00696   0.00696  -90.00000   0.00000   0.00080     3    4    5      1
     5  -0.02460   0.01740  -0.01392   0.00696  -90.00000   0.00000   0.00080     4    5    6      1
     6  -0.02460   0.01392  -0.01740   0.00696    0.00000 -90.00000   0.00080     5    6    7      2
     7  -0.02460   0.00696  -0.01740   0.00696    0.00000 -90.00000   0.00080     6    7    8      2
     8  -0.02460   0.00000  -0.01740   0.00696    0.00000 -90.00000   0.00080     7    8    9      2
     9  -0.02460  -0.00696  -0.01740   0.00696    0.00000 -90.00000   0.00080     8    9   10      2
    10  -0.02460  -0.01392  -0.01740   0.00696    0.00000 -90.00000   0.00080     9   10   16      2
    11  -0.02460  -0.01392   0.01740   0.00696    0.00000  90.00000   0.00080    20   11   12      3
    12  -0.02460  -0.00696   0.01740   0.00696    0.00000  90.00000   0.00080    11   12   13      3
    13  -0.02460   0.00000   0.01740   0.00696    0.00000  90.00000   0.00080    12   13   14      3
    14  -0.02460   0.00696   0.01740   0.00696    0.00000  90.00000   0.00080    13   14   15      3
    15  -0.02460   0.01392   0.01740   0.00696    0.00000  90.00000   0.00080    14   15    1      3
    16  -0.02460  -0.01740  -0.01392   0.00696   90.00000   0.00000   0.00080    10   16   17      4
    17  -0.02460  -0.01740  -0.00696   0.00696   90.00000   0.00000   0.00080    16   17   18      4
    18  -0.02460  -0.01740   0.00000   0.00696   90.00000   0.00000   0.00080    17   18   19      4
    19  -0.02460  -0.01740   0.00696   0.00696   90.00000   0.00000   0.00080    18   19   20      4
    20  -0.02460  -0.01740   0.01392   0.00696   90.00000   0.00000   0.00080    19   20   11      4
    21   0.00000   0.01590   0.01272   0.00636  -90.00000   0.00000   0.00130    35   21   22      5
    22   0.00000   0.01590   0.00636   0.00636  -90.00000   0.00000   0.00130    21   22   23      5
    23   0.00000   0.01590   0.00000   0.00636  -90.00000   0.00000   0.00130    22   23   24      5
    24   0.00000   0.01590  -0.00636   0.00636  -90.00000   0.00000   0.00130    23   24   25      5
    25   0.00000   0.01590  -0.01272   0.00636  -90.00000   0.00000   0.00130    24   25   26      5
    26   0.00000   0.01272  -0.01590   0.00636    0.00000 -90.00000   0.00130    25   26   27      6
    27   0.00000   0.00636  -0.01590   0.00636    0.00000 -90.00000   0.00130    26   27   28      6
    28   0.00000   0.00000  -0.01590   0.00636    0.00000 -90.00000   0.00130    27   28   29      6
    29   0.00000  -0.00636  -0.01590   0.00636    0.00000 -90.00000   0.00130    28   29   30      6
    30   0.00000  -0.01272  -0.01590   0.00636    0.00000 -90.00000   0.00130    29   30   36      6
    31   0.00000  -0.01272   0.01590   0.00636    0.00000  90.00000   0.00130    40   31   32      7
    32   0.00000  -0.00636   0.01590   0.00636    0.00000  90.00000   0.00130    31   32   33      7
    33   0.00000   0.00000   0.01590   0.00636    0.00000  90.00000   0.00130    32   33   34      7
    34   0.00000   0.00636   0.01590   0.00636    0.00000  90.00000   0.00130    33   34   35      7
    35   0.00000   0.01272   0.01590   0.00636    0.00000  90.00000   0.00130    34   35   21      7
    36   0.00000  -0.01590  -0.01272   0.00636   90.00000   0.00000   0.00130    30   36   37      8
    37   0.00000  -0.01590  -0.00636   0.00636   90.00000   0.00000   0.00130    36   37   38      8
    38   0.00000  -0.01590   0.00000   0.00636   90.00000   0.00000   0.00130    37   38   39      8
    39   0.00000  -0.01590   0.00636   0.00636   90.00000   0.00000   0.00130    38   39   40      8
    40   0.00000  -0.01590   0.01272   0.00636   90.00000   0.00000   0.00130    39   40   31      8
    41   0.02460   0.01610   0.01288   0.00644  -90.00000   0.00000   0.00120    55   41   42      9
    42   0.02460   0.01610   0.00644   0.00644  -90.00000   0.00000   0.00120    41   42   43      9
    43   0.02460   0.01610   0.00000   0.00644  -90.00000   0.00000   0.00120    42   43   44      9
    44   0.02460   0.01610  -0.00644   0.00644  -90.00000   0.00000   0.00120    43   44   45      9
    45   0.02460   0.01610  -0.01288   0.00644  -90.00000   0.00000   0.00120    44   45   46      9
    46   0.02460   0.01288  -0.01610   0.00644    0.00000 -90.00000   0.00120    45   46   47     10
    47   0.02460   0.00644  -0.01610   0.00644    0.00000 -90.00000   0.00120    46   47   48     10
    48   0.02460   0.00000  -0.01610   0.00644    0.00000 -90.00000   0.00120    47   48   49     10
    49   0.02460  -0.00644  -0.01610   0.00644    0.00000 -90.00000   0.00120    48   49   50     10
    50   0.02460  -0.01288  -0.01610   0.00644    0.00000 -90.00000   0.00120    49   50   56     10
    51   0.02460  -0.01288   0.01610   0.00644    0.00000  90.00000   0.00120    60   51   52     11
    52   0.02460  -0.00644   0.01610   0.00644    0.00000  90.00000   0.00120    51   52   53     11
    53   0.02460   0.00000   0.01610   0.00644    0.00000  90.00000   0.00120    52   53   54     11
    54   0.02460   0.00644   0.01610   0.00644    0.00000  90.00000   0.00120    53   54   55     11
    55   0.02460   0.01288   0.01610   0.00644    0.00000  90.00000   0.00120    54   55   41     11
    56   0.02460  -0.01610  -0.01288   0.00644   90.00000   0.00000   0.00120    50   56   57     12
    57   0.02460  -0.01610  -0.00644   0.00644   90.00000   0.00000   0.00120    56   57   58     12
    58   0.02460  -0.01610   0.00000   0.00644   90.00000   0.00000   0.00120    57   58   59     12
    59   0.02460  -0.01610   0.00644   0.00644   90.00000   0.00000   0.00120    58   59   60     12
    60   0.02460  -0.01610   0.01288   0.00644   90.00000   0.00000   0.00120    59   60   51     12
    61   0.04910   0.01560   0.01248   0.00624  -90.00000   0.00000   0.00120    75   61   62     13
    62   0.04910   0.01560   0.00624   0.00624  -90.00000   0.00000   0.00120    61   62   63     13
    63   0.04910   0.01560   0.00000   0.00624  -90.00000   0.00000   0.00120    62   63   64     13
    64   0.04910   0.01560  -0.00624   0.00624  -90.00000   0.00000   0.00120    63   64   65     13
    65   0.04910   0.01560  -0.01248   0.00624  -90.00000   0.00000   0.00120    64   65   66     13
    66   0.04910   0.01248  -0.01560   0.00624    0.00000 -90.00000   0.00120    65   66   67     14
    67   0.04910   0.00624  -0.01560   0.00624    0.00000 -90.00000   0.00120    66   67   68     14
    68   0.04910   0.00000  -0.01560   0.00624    0.00000 -90.00000   0.00120    67   68   69     14
    69   0.04910  -0.00624  -0.01560   0.00624    0.00000 -90.00000   0.00120    68   69   70     14
    70   0.04910  -0.01248  -0.01560   0.00624    0.00000 -90.00000   0.00120    69   70   76     14
    71   0.04910  -0.01248   0.01560   0.00624    0.00000  90.00000   0.00120    80   71   72     15
    72   0.04910  -0.00624   0.01560   0.00624    0.00000  90.00000   0.00120    71   72   73     15
    73   0.04910   0.00000   0.01560   0.00624    0.00000  90.00000   0.00120    72   73   74     15
    74   0.04910   0.00624   0.01560   0.00624    0.00000  90.00000   0.00120    73   74   75     15
    75   0.04910   0.01248   0.01560   0.00624    0.00000  90.00000   0.00120    74   75   61     15
    76   0.04910  -0.01560  -0.01248   0.00624   90.00000   0.00000   0.00120    70   76   77     16
    77   0.04910  -0.01560  -0.00624   0.00624   90.00000   0.00000   0.00120    76   77   78     16
    78   0.04910  -0.01560   0.00000   0.00624   90.00000   0.00000   0.00120    77   78   79     16
    79   0.04910  -0.01560   0.00624   0.00624   90.00000   0.00000   0.00120    78   79   80     16
    80   0.04910  -0.01560   0.01248   0.00624   90.00000   0.00000   0.00120    79   80   71     16
    81   0.07370   0.01390   0.01112   0.00556  -90.00000   0.00000   0.00150    95   81   82     17
    82   0.07370   0.01390   0.00556   0.00556  -90.00000   0.00000   0.00150    81   82   83     17
    83   0.07370   0.01390   0.00000   0.00556  -90.00000   0.00000   0.00150    82   83   84     17
    84   0.07370   0.01390  -0.00556   0.00556  -90.00000   0.00000   0.00150    83   84   85     17
    85   0.07370   0.01390  -0.01112   0.00556  -90.00000   0.00000   0.00150    84   85   86     17
    86   0.07370   0.01112  -0.01390   0.00556    0.00000 -90.00000   0.00150    85   86   87     18
    87   0.07370   0.00556  -0.01390   0.00556    0.00000 -90.00000   0.00150    86   87   88     18
    88   0.07370   0.00000  -0.01390   0.00556    0.00000 -90.00000   0.00150    87   88   89     18
    89   0.07370  -0.00556  -0.01390   0.00556    0.00000 -90.00000   0.00150    88   89   90     18
    90   0.07370  -0.01112  -0.01390   0.00556    0.00000 -90.00000   0.00150    89   90   96     18
    91   0.07370  -0.01112   0.01390   0.00556    0.00000  90.00000   0.00150   100   91   92     19
    92   0.07370  -0.00556   0.01390   0.00556    0.00000  90.00000   0.00150    91   92   93     19
    93   0.07370   0.00000   0.01390   0.00556    0.00000  90.00000   0.00150    92   93   94     19
    94   0.07370   0.00556   0.01390   0.00556    0.00000  90.00000   0.00150    93   94   95     19
    95   0.07370   0.01112   0.01390   0.00556    0.00000  90.00000   0.00150    94   95   81     19
    96   0.07370  -0.01390  -0.01112   0.00556   90.00000   0.00000   0.00150    90   96   97     20
    97   0.07370  -0.01390  -0.00556   0.00556   90.00000   0.00000   0.00150    96   97   98     20
    98   0.07370  -0.01390   0.00000   0.00556   90.00000   0.00000   0.00150    97   98   99     20
    99   0.07370  -0.01390   0.00556   0.00556   90.00000   0.00000   0.00150    98   99  100     20
   100   0.07370  -0.01390   0.01112   0.00556   90.00000   0.00000   0.00150    99  100   91     20
   101   0.09830   0.01500   0.01200   0.00600  -90.00000   0.00000   0.00020   115  101  102     21
   102   0.09830   0.01500   0.00600   0.00600  -90.00000   0.00000   0.00020   101  102  103     21
   103   0.09830   0.01500   0.00000   0.00600  -90.00000   0.00000   0.00020   102  103  104     21
   104   0.09830   0.01500  -0.00600   0.00600  -90.00000   0.00000   0.00020   103  104  105     21
   105   0.09830   0.01500  -0.01200   0.00600  -90.00000   0.00000   0.00020   104  105  106     21
   106   0.09830   0.01200  -0.01500   0.00600    0.00000 -90.00000   0.00020   105  106  107     22
   107   0.09830   0.00600  -0.01500   0.00600    0.00000 -90.00000   0.00020   106  107  108     22
   108   0.09830   0.00000  -0.01500   0.00600    0.00000 -90.00000   0.00020   107  108  109     22
   109   0.09830  -0.00600  -0.01500   0.00600    0.00000 -90.00000   0.00020   108  109  110     22
   110   0.09830  -0.01200  -0.01500   0.00600    0.00000 -90.00000   0.00020   109  110  116     22
   111   0.09830  -0.01200   0.01500   0.00600    0.00000  90.00000   0.00020   120  111  112     23
   112   0.09830  -0.00600   0.01500   0.00600    0.00000  90.00000   0.00020   111  112  113     23
   113   0.09830   0.00000   0.01500   0.00600    0.00000  90.00000   0.00020   112  113  114     23
   114   0.09830   0.00600   0.01500   0.00600    0.00000  90.00000   0.00020   113  114  115     23
   115   0.09830   0.01200   0.01500   0.00600    0.00000  90.00000   0.00020   114  115  101     23
   116   0.09830  -0.01500  -0.01200   0.00600   90.00000   0.00000   0.00020   110  116  117     24
   117   0.09830  -0.01500  -0.00600   0.00600   90.00000   0.00000   0.00020   116  117  118     24
   118   0.09830  -0.01500   0.00000   0.00600   90.00000   0.00000   0.00020   117  118  119     24
   119   0.09830  -0.01500   0.00600   0.00600   90.00000   0.00000   0.00020   118  119  120     24
   120   0.09830  -0.01500   0.01200   0.00600   90.00000   0.00000   0.00020   119  120  111     24
   121   0.12290   0.01450   0.01160   0.00580  -90.00000   0.00000   0.00030   135  121  122     25
   122   0.12290   0.01450   0.00580   0.00580  -90.00000   0.00000   0.00030   121  122  123     25
   123   0.12290   0.01450   0.00000   0.00580  -90.00000   0.00000   0.00030   122  123  124     25
   124   0.12290   0.01450  -0.00580   0.00580  -90.00000   0.00000   0.00030   123  124  125     25
   125   0.12290   0.01450  -0.01160   0.00580  -90.00000   0.00000   0.00030   124  125  126     25
   126   0.12290   0.01160  -0.01450   0.00580    0.00000 -90.00000   0.00030   125  126  127     26
   127   0.12290   0.00580  -0.01450   0.00580    0.00000 -90.00000   0.00030   126  127  128     26
   128   0.12290   0.00000  -0.01450   0.00580    0.00000 -90.00000   0.00030   127  128  129     26
   129   0.12290  -0.00580  -0.01450   0.00580    0.00000 -90.00000   0.00030   128  129  130     26
   130   0.12290  -0.01160  -0.01450   0.00580    0.00000 -90.00000   0.00030   129  130  136     26
   131   0.12290  -0.01160   0.01450   0.00580    0.00000  90.00000   0.00030   140  131  132     27
   132   0.12290  -0.00580   0.01450   0.00580    0.00000  90.00000   0.00030   131  132  133     27
   133   0.12290   0.00000   0.01450   0.00580    0.00000  90.00000   0.00030   132  133  134     27
   134   0.12290   0.00580   0.01450   0.00580    0.00000  90.00000   0.00030   133  134  135     27
   135   0.12290   0.01160   0.01450   0.00580    0.00000  90.00000   0.00030   134  135  121     27
   136   0.12290  -0.01450  -0.01160   0.00580   90.00000   0.00000   0.00030   130  136  137     28
   137   0.12290  -0.01450  -0.00580   0.00580   90.00000   0.00000   0.00030   136  137  138     28
   138   0.12290  -0.01450   0.00000   0.00580   90.00000   0.00000   0.00030   137  138  139     28
   139   0.12290  -0.01450   0.00580   0.00580   90.00000   0.00000   0.00030   138  139  140     28
   140   0.12290  -0.01450   0.01160   0.00580   90.00000   0.00000   0.00030   139  140  131     28
   141   0.14740   0.01340   0.01072   0.00536  -90.00000   0.00000   0.00070   155  141  142     29
   142   0.14740   0.01340   0.00536   0.00536  -90.00000   0.00000   0.00070   141  142  143     29
   143   0.14740   0.01340   0.00000   0.00536  -90.00000   0.00000   0.00070   142  143  144     29
   144   0.14740   0.01340  -0.00536   0.00536  -90.00000   0.00000   0.00070   143  144  145     29
   145   0.14740   0.01340  -0.01072   0.00536  -90.00000   0.00000   0.00070   144  145  146     29
   146   0.14740   0.01072  -0.01340   0.00536    0.00000 -90.00000   0.00070   145  146  147     30
   147   0.14740   0.00536  -0.01340   0.00536    0.00000 -90.00000   0.00070   146  147  148     30
   148   0.14740   0.00000  -0.01340   0.00536    0.00000 -90.00000   0.00070   147  148  149     30
   149   0.14740  -0.00536  -0.01340   0.00536    0.00000 -90.00000   0.00070   148  149  150     30
   150   0.14740  -0.01072  -0.01340   0.00536    0.00000 -90.00000   0.00070   149  150  156     30
   151   0.14740  -0.01072   0.01340   0.00536    0.00000  90.00000   0.00070   160  151  152     31
   152   0.14740  -0.00536   0.01340   0.00536    0.00000  90.00000   0.00070   151  152  153     31
   153   0.14740   0.00000   0.01340   0.00536    0.00000  90.00000   0.00070   152  153  154     31
   154   0.14740   0.00536   0.01340   0.00536    0.00000  90.00000   0.00070   153  154  155     31
   155   0.14740   0.01072   0.01340   0.00536    0.00000  90.00000   0.00070   154  155  141     31
   156   0.14740  -0.01340  -0.01072   0.00536   90.00000   0.00000   0.00070   150  156  157     32
   157   0.14740  -0.01340  -0.00536   0.00536   90.00000   0.00000   0.00070   156  157  158     32
   158   0.14740  -0.01340   0.00000   0.00536   90.00000   0.00000   0.00070   157  158  159     32
   159   0.14740  -0.01340   0.00536   0.00536   90.00000   0.00000   0.00070   158  159  160     32
   160   0.14740  -0.01340   0.01072   0.00536   90.00000   0.00000   0.00070   159  160  151     32
   161   0.17200   0.01320   0.01056   0.00528  -90.00000   0.00000   0.00140   175  161  162     33
   162   0.17200   0.01320   0.00528   0.00528  -90.00000   0.00000   0.00140   161  162  163     33
   163   0.17200   0.01320   0.00000   0.00528  -90.00000   0.00000   0.00140   162  163  164     33
   164   0.17200   0.01320  -0.00528   0.00528  -90.00000   0.00000   0.00140   163  164  165     33
   165   0.17200   0.01320  -0.01056   0.00528  -90.00000   0.00000   0.00140   164  165  166     33
   166   0.17200   0.01056  -0.01320   0.00528    0.00000 -90.00000   0.00140   165  166  167     34
   167   0.17200   0.00528  -0.01320   0.00528    0.00000 -90.00000   0.00140   166  167  168     34
   168   0.17200   0.00000  -0.01320   0.00528    0.00000 -90.00000   0.00140   167  168  169     34
   169   0.17200  -0.00528  -0.01320   0.00528    0.00000 -90.00000   0.00140   168  169  170     34
   170   0.17200  -0.01056  -0.01320   0.00528    0.00000 -90.00000   0.00140   169  170  176     34
   171   0.17200  -0.01056   0.01320   0.00528    0.00000  90.00000   0.00140   180  171  172     35
   172   0.17200  -0.00528   0.01320   0.00528    0.00000  90.00000   0.00140   171  172  173     35
   173   0.17200   0.00000   0.01320   0.00528    0.00000  90.00000   0.00140   172  173  174     35
   174   0.17200   0.00528   0.01320   0.00528    0.00000  90.00000   0.00140   173  174  175     35
   175   0.17200   0.01056   0.01320   0.00528    0.00000  90.00000   0.00140   174  175  161     35
   176   0.17200  -0.01320  -0.01056   0.00528   90.00000   0.00000   0.00140   170  176  177     36
   177   0.17200  -0.01320  -0.00528   0.00528   90.00000   0.00000   0.00140   176  177  178     36
   178   0.17200  -0.01320   0.00000   0.00528   90.00000   0.00000   0.00140   177  178  179     36
   179   0.17200  -0.01320   0.00528   0.00528   90.00000   0.00000   0.00140   178  179  180     36
   180   0.17200  -0.01320   0.01056   0.00528   90.00000   0.00000   0.00140   179  180  171     36
   181   0.19660   0.01590   0.01272   0.00636  -90.00000   0.00000   0.00140   195  181  182     37
   182   0.19660   0.01590   0.00636   0.00636  -90.00000   0.00000   0.00140   181  182  183     37
   183   0.19660   0.01590   0.00000   0.00636  -90.00000   0.00000   0.00140   182  183  184     37
   184   0.19660   0.01590  -0.00636   0.00636  -90.00000   0.00000   0.00140   183  184  185     37
   185   0.19660   0.01590  -0.01272   0.00636  -90.00000   0.00000   0.00140   184  185  186     37
   186   0.19660   0.01272  -0.01590   0.00636    0.00000 -90.00000   0.00140   185  186  187     38
   187   0.19660   0.00636  -0.01590   0.00636    0.00000 -90.00000   0.00140   186  187  188     38
   188   0.19660   0.00000  -0.01590   0.00636    0.00000 -90.00000   0.00140   187  188  189     38
   189   0.19660  -0.00636  -0.01590   0.00636    0.00000 -90.00000   0.00140   188  189  190     38
   190   0.19660  -0.01272  -0.01590   0.00636    0.00000 -90.00000   0.00140   189  190  196     38
   191   0.19660  -0.01272   0.01590   0.00636    0.00000  90.00000   0.00140   200  191  192     39
   192   0.19660  -0.00636   0.01590   0.00636    0.00000  90.00000   0.00140   191  192  193     39
   193   0.19660   0.00000   0.01590   0.00636    0.00000  90.00000   0.00140   192  193  194     39
   194   0.19660   0.00636   0.01590   0.00636    0.00000  90.00000   0.00140   193  194  195     39
   195   0.19660   0.01272   0.01590   0.00636    0.00000  90.00000   0.00140   194  195  181     39
   196   0.19660  -0.01590  -0.01272   0.00636   90.00000   0.00000   0.00140   190  196  197     40
   197   0.19660  -0.01590  -0.00636   0.00636   90.00000   0.00000   0.00140   196  197  198     40
   198   0.19660  -0.01590   0.00000   0.00636   90.00000   0.00000   0.00140   197  198  199     40
   199   0.19660  -0.01590   0.00636   0.00636   90.00000   0.00000   0.00140   198  199  200     40
   200   0.19660  -0.01590   0.01272   0.00636   90.00000   0.00000   0.00140   199  200  191     40






 ***** DATA CARD NO.  1   EX   0     5     3     0  1.00000E+00  0.00000E+00  0.00000E+00  0.00000E+00  0.00000E+00  0.00000E+00
 ***** DATA CARD NO.  2   FR   0     1     0     0  2.40000E+03  0.00000E+00  0.00000E+00  0.00000E+00  0.00000E+00  0.00000E+00
 ***** DATA CARD NO.  3   RP   0   181    91  1000  0.00000E+00  0.00000E+00  2.00000E+00  2.00000E+00  0.00000E+00  0.00000E+00




                                 - - - - - - FREQUENCY - - - - - -

                                    FREQUENCY= 2.4000E+03 MHZ
                                    WAVELENGTH= 1.2492E-01 METERS




                    APPROXIMATE INTEGRATION EMPLOYED FOR SEGMENTS MORE THAN   1.000 WAVELENGTHS APART



                               - - - STRUCTURE IMPEDANCE LOADING - - -

                                   THIS STRUCTURE IS NOT LOADED



                                  - - - ANTENNA ENVIRONMENT - - -

                                            FREE SPACE



                                - - - MATRIX TIMING - - -

                        FILL=    0.063 SEC.,  FACTOR=    0.016 SEC.



                                          - - - ANTENNA INPUT PARAMETERS - - -

   TAG   SEG.    VOLTAGE (VOLTS)         CURRENT (AMPS)         IMPEDANCE (OHMS)        ADMITTANCE (MHOS)      POWER
   NO.   NO.    REAL        IMAG.       REAL        IMAG.       REAL        IMAG.       REAL        IMAG.     (WATTS)
     5    23 1.00000E+00 0.00000E+00 1.60127E-02 1.76199E-02 2.82477E+01-3.10830E+01 1.60127E-02 1.76199E-02 8.00634E-03



                             - - - CURRENTS AND LOCATION - - -

                                 DISTANCES IN WAVELENGTHS


  SEG.  TAG    COORD. OF SEG. CENTER     SEG.            - - - CURRENT (AMPS) - - -
  NO.   NO.     X        Y        Z      LENGTH     REAL        IMAG.       MAG.        PHASE
     1    1  -0.1969   0.1393   0.1114  0.05572  -9.9470E-03 -5.2910E-03  1.1267E-02 -151.991
     2    1  -0.1969   0.1393   0.0557  0.05572  -1.1696E-02 -6.2455E-03  1.3259E-02 -151.899
     3    1  -0.1969   0.1393   0.0000  0.05572  -1.2317E-02 -6.5907E-03  1.3969E-02 -151.849
     4    1  -0.1969   0.1393  -0.0557  0.05572  -1.1696E-02 -6.2455E-03  1.3259E-02 -151.899
     5    1  -0.1969   0.1393  -0.1114  0.05572  -9.9470E-03 -5.2910E-03  1.1267E-02 -151.991
     6    2  -0.1969   0.1114  -0.1393  0.05572  -7.3254E-03 -3.8997E-03  8.2987E-03 -151.971
     7    2  -0.1969   0.0557  -0.1393  0.05572  -3.8815E-03 -2.0263E-03  4.3786E-03 -152.434
     8    2  -0.1969   0.0000  -0.1393  0.05572   4.0664E-05  1.2273E-04  1.2930E-04   71.669
     9    2  -0.1969  -0.0557  -0.1393  0.05572   3.9659E-03  2.2628E-03  4.5660E-03   29.708
    10    2  -0.1969  -0.1114  -0.1393  0.05572   7.4194E-03  4.1140E-03  8.4837E-03   29.008
    11    3  -0.1969  -0.1114   0.1393  0.05572   7.4194E-03  4.1140E-03  8.4837E-03   29.008
    12    3  -0.1969  -0.0557   0.1393  0.05572   3.9659E-03  2.2628E-03  4.5660E-03   29.708
    13    3  -0.1969   0.0000   0.1393  0.05572   4.0664E-05  1.2273E-04  1.2930E-04   71.669
    14    3  -0.1969   0.0557   0.1393  0.05572  -3.8815E-03 -2.0263E-03  4.3786E-03 -152.434
    15    3  -0.1969   0.1114   0.1393  0.05572  -7.3254E-03 -3.8997E-03  8.2987E-03 -151.971
    16    4  -0.1969  -0.1393  -0.1114  0.05572   1.0058E-02  5.4813E-03  1.1455E-02   28.589
    17    4  -0.1969  -0.1393  -0.0557  0.05572   1.1820E-02  6.4111E-03  1.3446E-02   28.476
    18    4  -0.1969  -0.1393   0.0000  0.05572   1.2445E-02  6.7456E-03  1.4155E-02   28.460
    19    4  -0.1969  -0.1393   0.0557  0.05572   1.1820E-02  6.4111E-03  1.3446E-02   28.476
    20    4  -0.1969  -0.1393   0.1114  0.05572   1.0058E-02  5.4813E-03  1.1455E-02   28.589
    21    5   0.0000   0.1273   0.1018  0.05091   1.2901E-02  1.2283E-02  1.7813E-02   43.593
    22    5   0.0000   0.1273   0.0509  0.05091   1.5212E-02  1.5470E-02  2.1696E-02   45.483
    23    5   0.0000   0.1273   0.0000  0.05091   1.6013E-02  1.7620E-02  2.3809E-02   47.736
    24    5   0.0000   0.1273  -0.0509  0.05091   1.5212E-02  1.5470E-02  2.1696E-02   45.483
    25    5   0.0000   0.1273  -0.1018  0.05091   1.2901E-02  1.2283E-02  1.7813E-02   43.593
    26    6   0.0000   0.1018  -0.1273  0.05091   9.2382E-03  8.2297E-03  1.2372E-02   41.696
    27    6   0.0000   0.0509  -0.1273  0.05091   4.8648E-03  3.5098E-03  5.9987E-03   35.809
    28    6   0.0000   0.0000  -0.1273  0.05091   5.2716E-05 -1.5719E-03  1.5728E-03  -88.079
    29    6   0.0000  -0.0509  -0.1273  0.05091  -4.7565E-03 -6.4999E-03  8.0544E-03 -126.196
    30    6   0.0000  -0.1018  -0.1273  0.05091  -9.1203E-03 -1.0788E-02  1.4127E-02 -130.210
    31    7   0.0000  -0.1018   0.1273  0.05091  -9.1203E-03 -1.0788E-02  1.4127E-02 -130.210
    32    7   0.0000  -0.0509   0.1273  0.05091  -4.7565E-03 -6.4999E-03  8.0544E-03 -126.196
    33    7   0.0000   0.0000   0.1273  0.05091   5.2716E-05 -1.5719E-03  1.5728E-03  -88.079
    34    7   0.0000   0.0509   0.1273  0.05091   4.8648E-03  3.5098E-03  5.9987E-03   35.809
    35    7   0.0000   0.1018   0.1273  0.05091   9.2382E-03  8.2297E-03  1.2372E-02   41.696
    36    8   0.0000  -0.1273  -0.1018  0.05091  -1.2764E-02 -1.4173E-02  1.9073E-02 -132.005
    37    8   0.0000  -0.1273  -0.0509  0.05091  -1.5061E-02 -1.6344E-02  2.2225E-02 -132.660
    38    8   0.0000  -0.1273   0.0000  0.05091  -1.5857E-02 -1.7105E-02  2.3325E-02 -132.831
    39    8   0.0000  -0.1273   0.0509  0.05091  -1.5061E-02 -1.6344E-02  2.2225E-02 -132.660
    40    8   0.0000  -0.1273   0.1018  0.05091  -1.2764E-02 -1.4173E-02  1.9073E-02 -132.005
    41    9   0.1969   0.1289   0.1031  0.05155  -1.0440E-04 -1.0167E-02  1.0167E-02  -90.588
    42    9   0.1969   0.1289   0.0516  0.05155  -1.2688E-04 -1.2022E-02  1.2022E-02  -90.605
    43    9   0.1969   0.1289   0.0000  0.05155  -1.3668E-04 -1.2671E-02  1.2672E-02  -90.618
    44    9   0.1969   0.1289  -0.0516  0.05155  -1.2688E-04 -1.2022E-02  1.2022E-02  -90.605
    45    9   0.1969   0.1289  -0.1031  0.05155  -1.0440E-04 -1.0167E-02  1.0167E-02  -90.588
    46   10   0.1969   0.1031  -0.1289  0.05155  -8.1428E-05 -7.2878E-03  7.2883E-03  -90.640
    47   10   0.1969   0.0516  -0.1289  0.05155  -2.7931E-05 -3.7639E-03  3.7640E-03  -90.425
    48   10   0.1969   0.0000  -0.1289  0.05155   4.3601E-05  1.3951E-04  1.4616E-04   72.644
    49   10   0.1969  -0.0516  -0.1289  0.05155   1.1753E-04  4.0339E-03  4.0356E-03   88.331
    50   10   0.1969  -0.1031  -0.1289  0.05155   1.7891E-04  7.5348E-03  7.5369E-03   88.640
    51   11   0.1969  -0.1031   0.1289  0.05155   1.7891E-04  7.5348E-03  7.5369E-03   88.640
    52   11   0.1969  -0.0516   0.1289  0.05155   1.1753E-04  4.0339E-03  4.0356E-03   88.331
    53   11   0.1969   0.0000   0.1289  0.05155   4.3601E-05  1.3951E-04  1.4616E-04   72.644
    54   11   0.1969   0.0516   0.1289  0.05155  -2.7931E-05 -3.7639E-03  3.7640E-03  -90.425
    55   11   0.1969   0.1031   0.1289  0.05155  -8.1428E-05 -7.2878E-03  7.2883E-03  -90.640
    56   12   0.1969  -0.1289  -0.1031  0.05155   2.1740E-04  1.0389E-02  1.0391E-02   88.801
    57   12   0.1969  -0.1289  -0.0516  0.05155   2.5105E-04  1.2220E-02  1.2223E-02   88.823
    58   12   0.1969  -0.1289   0.0000  0.05155   2.6470E-04  1.2859E-02  1.2862E-02   88.821
    59   12   0.1969  -0.1289   0.0516  0.05155   2.5105E-04  1.2220E-02  1.2223E-02   88.823
    60   12   0.1969  -0.1289   0.1031  0.05155   2.1740E-04  1.0389E-02  1.0391E-02   88.801
    61   13   0.3931   0.1249   0.0999  0.04995  -8.8691E-03 -1.2561E-03  8.9576E-03 -171.939
    62   13   0.3931   0.1249   0.0500  0.04995  -1.0467E-02 -1.4802E-03  1.0571E-02 -171.950
    63   13   0.3931   0.1249   0.0000  0.04995  -1.1013E-02 -1.5530E-03  1.1122E-02 -171.974
    64   13   0.3931   0.1249  -0.0500  0.04995  -1.0467E-02 -1.4802E-03  1.0571E-02 -171.950
    65   13   0.3931   0.1249  -0.0999  0.04995  -8.8691E-03 -1.2561E-03  8.9576E-03 -171.939
    66   14   0.3931   0.0999  -0.1249  0.04995  -6.2969E-03 -8.6512E-04  6.3561E-03 -172.177
    67   14   0.3931   0.0500  -0.1249  0.04995  -3.2718E-03 -4.3916E-04  3.3012E-03 -172.355
    68   14   0.3931   0.0000  -0.1249  0.04995   2.5823E-05  8.5450E-06  2.7200E-05   18.310
    69   14   0.3931  -0.0500  -0.1249  0.04995   3.3244E-03  4.5462E-04  3.3553E-03    7.787
    70   14   0.3931  -0.0999  -0.1249  0.04995   6.3525E-03  8.7570E-04  6.4126E-03    7.849
    71   15   0.3931  -0.0999   0.1249  0.04995   6.3525E-03  8.7570E-04  6.4126E-03    7.849
    72   15   0.3931  -0.0500   0.1249  0.04995   3.3244E-03  4.5462E-04  3.3553E-03    7.787
    73   15   0.3931   0.0000   0.1249  0.04995   2.5823E-05  8.5450E-06  2.7200E-05   18.310
    74   15   0.3931   0.0500   0.1249  0.04995  -3.2718E-03 -4.3916E-04  3.3012E-03 -172.355
    75   15   0.3931   0.0999   0.1249  0.04995  -6.2969E-03 -8.6512E-04  6.3561E-03 -172.177
    76   16   0.3931  -0.1249  -0.0999  0.04995   8.9312E-03  1.2591E-03  9.0195E-03    8.025
    77   16   0.3931  -0.1249  -0.0500  0.04995   1.0533E-02  1.4782E-03  1.0637E-02    7.988
    78   16   0.3931  -0.1249   0.0000  0.04995   1.1082E-02  1.5491E-03  1.1190E-02    7.958
    79   16   0.3931  -0.1249   0.0500  0.04995   1.0533E-02  1.4782E-03  1.0637E-02    7.988
    80   16   0.3931  -0.1249   0.0999  0.04995   8.9312E-03  1.2591E-03  9.0195E-03    8.025
    81   17   0.5900   0.1113   0.0890  0.04451  -1.7731E-04  3.4773E-03  3.4818E-03   92.919
    82   17   0.5900   0.1113   0.0445  0.04451  -2.0905E-04  4.0970E-03  4.1023E-03   92.921
    83   17   0.5900   0.1113   0.0000  0.04451  -2.1752E-04  4.3047E-03  4.3102E-03   92.893
    84   17   0.5900   0.1113  -0.0445  0.04451  -2.0905E-04  4.0970E-03  4.1023E-03   92.921
    85   17   0.5900   0.1113  -0.0890  0.04451  -1.7731E-04  3.4773E-03  3.4818E-03   92.919
    86   18   0.5900   0.0890  -0.1113  0.04451  -1.0296E-04  2.3898E-03  2.3920E-03   92.467
    87   18   0.5900   0.0445  -0.1113  0.04451  -4.4685E-05  1.2250E-03  1.2258E-03   92.089
    88   18   0.5900   0.0000  -0.1113  0.04451   7.4525E-06 -9.7282E-06  1.2255E-05  -52.546
    89   18   0.5900  -0.0445  -0.1113  0.04451   5.9404E-05 -1.2452E-03  1.2466E-03  -87.269
    90   18   0.5900  -0.0890  -0.1113  0.04451   1.1718E-04 -2.4124E-03  2.4153E-03  -87.219
    91   19   0.5900  -0.0890   0.1113  0.04451   1.1718E-04 -2.4124E-03  2.4153E-03  -87.219
    92   19   0.5900  -0.0445   0.1113  0.04451   5.9404E-05 -1.2452E-03  1.2466E-03  -87.269
    93   19   0.5900   0.0000   0.1113  0.04451   7.4525E-06 -9.7282E-06  1.2255E-05  -52.546
    94   19   0.5900   0.0445   0.1113  0.04451  -4.4685E-05  1.2250E-03  1.2258E-03   92.089
    95   19   0.5900   0.0890   0.1113  0.04451  -1.0296E-04  2.3898E-03  2.3920E-03   92.467
    96   20   0.5900  -0.1113  -0.0890  0.04451   1.9106E-04 -3.5049E-03  3.5101E-03  -86.880
    97   20   0.5900  -0.1113  -0.0445  0.04451   2.2267E-04 -4.1278E-03  4.1338E-03  -86.912
    98   20   0.5900  -0.1113   0.0000  0.04451   2.3111E-04 -4.3366E-03  4.3428E-03  -86.949
    99   20   0.5900  -0.1113   0.0445  0.04451   2.2267E-04 -4.1278E-03  4.1338E-03  -86.912
   100   20   0.5900  -0.1113   0.0890  0.04451   1.9106E-04 -3.5049E-03  3.5101E-03  -86.880
   101   21   0.7869   0.1201   0.0961  0.04803   5.0991E-03  3.3992E-03  6.1283E-03   33.689
   102   21   0.7869   0.1201   0.0480  0.04803   6.0234E-03  4.0168E-03  7.2399E-03   33.698
   103   21   0.7869   0.1201   0.0000  0.04803   6.3399E-03  4.2281E-03  7.6204E-03   33.699
   104   21   0.7869   0.1201  -0.0480  0.04803   6.0234E-03  4.0168E-03  7.2399E-03   33.698
   105   21   0.7869   0.1201  -0.0961  0.04803   5.0991E-03  3.3992E-03  6.1283E-03   33.689
   106   22   0.7869   0.0961  -0.1201  0.04803   3.6539E-03  2.4331E-03  4.3898E-03   33.659
   107   22   0.7869   0.0480  -0.1201  0.04803   1.9029E-03  1.2653E-03  2.2852E-03   33.622
   108   22   0.7869   0.0000  -0.1201  0.04803  -2.0611E-06 -3.4307E-06  4.0022E-06 -120.996
   109   22   0.7869  -0.0480  -0.1201  0.04803  -1.9074E-03 -1.2724E-03  2.2928E-03 -146.294
   110   22   0.7869  -0.0961  -0.1201  0.04803  -3.6595E-03 -2.4406E-03  4.3987E-03 -146.299
   111   23   0.7869  -0.0961   0.1201  0.04803  -3.6595E-03 -2.4406E-03  4.3987E-03 -146.299
   112   23   0.7869  -0.0480   0.1201  0.04803  -1.9074E-03 -1.2724E-03  2.2928E-03 -146.294
   113   23   0.7869   0.0000   0.1201  0.04803  -2.0611E-06 -3.4307E-06  4.0023E-06 -120.997
   114   23   0.7869   0.0480   0.1201  0.04803   1.9029E-03  1.2653E-03  2.2852E-03   33.622
   115   23   0.7869   0.0961   0.1201  0.04803   3.6539E-03  2.4331E-03  4.3898E-03   33.659
   116   24   0.7869  -0.1201  -0.0961  0.04803  -5.1064E-03 -3.4077E-03  6.1390E-03 -146.283
   117   24   0.7869  -0.1201  -0.0480  0.04803  -6.0319E-03 -4.0259E-03  7.2520E-03 -146.280
   118   24   0.7869  -0.1201   0.0000  0.04803  -6.3488E-03 -4.2374E-03  7.6330E-03 -146.280
   119   24   0.7869  -0.1201   0.0480  0.04803  -6.0319E-03 -4.0259E-03  7.2520E-03 -146.280
   120   24   0.7869  -0.1201   0.0961  0.04803  -5.1064E-03 -3.4077E-03  6.1390E-03 -146.283
   121   25   0.9839   0.1161   0.0929  0.04643   1.6074E-03 -2.1673E-03  2.6983E-03  -53.437
   122   25   0.9839   0.1161   0.0464  0.04643   1.9024E-03 -2.5644E-03  3.1931E-03  -53.430
   123   25   0.9839   0.1161   0.0000  0.04643   2.0022E-03 -2.7002E-03  3.3615E-03  -53.442
   124   25   0.9839   0.1161  -0.0464  0.04643   1.9024E-03 -2.5644E-03  3.1931E-03  -53.430
   125   25   0.9839   0.1161  -0.0929  0.04643   1.6074E-03 -2.1673E-03  2.6983E-03  -53.437
   126   26   0.9839   0.0929  -0.1161  0.04643   1.1389E-03 -1.5450E-03  1.9195E-03  -53.604
   127   26   0.9839   0.0464  -0.1161  0.04643   5.8781E-04 -8.0203E-04  9.9437E-04  -53.762
   128   26   0.9839   0.0000  -0.1161  0.04643  -2.9727E-06  4.2183E-07  3.0024E-06  171.923
   129   26   0.9839  -0.0464  -0.1161  0.04643  -5.9398E-04  8.0302E-04  9.9883E-04  126.490
   130   26   0.9839  -0.0929  -0.1161  0.04643  -1.1458E-03  1.5465E-03  1.9247E-03  126.534
   131   27   0.9839  -0.0929   0.1161  0.04643  -1.1458E-03  1.5465E-03  1.9247E-03  126.534
   132   27   0.9839  -0.0464   0.1161  0.04643  -5.9398E-04  8.0302E-04  9.9883E-04  126.490
   133   27   0.9839   0.0000   0.1161  0.04643  -2.9727E-06  4.2185E-07  3.0025E-06  171.923
   134   27   0.9839   0.0464   0.1161  0.04643   5.8781E-04 -8.0203E-04  9.9437E-04  -53.762
   135   27   0.9839   0.0929   0.1161  0.04643   1.1389E-03 -1.5450E-03  1.9195E-03  -53.604
   136   28   0.9839  -0.1161  -0.0929  0.04643  -1.6154E-03  2.1695E-03  2.7048E-03  126.671
   137   28   0.9839  -0.1161  -0.0464  0.04643  -1.9112E-03  2.5671E-03  3.2004E-03  126.666
   138   28   0.9839  -0.1161   0.0000  0.04643  -2.0112E-03  2.7030E-03  3.3692E-03  126.652
   139   28   0.9839  -0.1161   0.0464  0.04643  -1.9112E-03  2.5671E-03  3.2004E-03  126.666
   140   28   0.9839  -0.1161   0.0929  0.04643  -1.6154E-03  2.1695E-03  2.7048E-03  126.671
   141   29   1.1800   0.1073   0.0858  0.04291  -2.4264E-03 -2.9533E-03  3.8222E-03 -129.406
   142   29   1.1800   0.1073   0.0429  0.04291  -2.8729E-03 -3.5001E-03  4.5282E-03 -129.379
   143   29   1.1800   0.1073   0.0000  0.04291  -3.0230E-03 -3.6835E-03  4.7651E-03 -129.375
   144   29   1.1800   0.1073  -0.0429  0.04291  -2.8729E-03 -3.5001E-03  4.5282E-03 -129.379
   145   29   1.1800   0.1073  -0.0858  0.04291  -2.4264E-03 -2.9533E-03  3.8222E-03 -129.406
   146   30   1.1800   0.0858  -0.1073  0.04291  -1.7018E-03 -2.0638E-03  2.6750E-03 -129.510
   147   30   1.1800   0.0429  -0.1073  0.04291  -8.7564E-04 -1.0581E-03  1.3735E-03 -129.609
   148   30   1.1800   0.0000  -0.1073  0.04291  -6.1781E-07  2.7089E-06  2.7784E-06  102.848
   149   30   1.1800  -0.0429  -0.1073  0.04291   8.7443E-04  1.0637E-03  1.3770E-03   50.578
   150   30   1.1800  -0.0858  -0.1073  0.04291   1.7007E-03  2.0699E-03  2.6790E-03   50.592
   151   31   1.1800  -0.0858   0.1073  0.04291   1.7007E-03  2.0699E-03  2.6790E-03   50.592
   152   31   1.1800  -0.0429   0.1073  0.04291   8.7443E-04  1.0637E-03  1.3770E-03   50.578
   153   31   1.1800   0.0000   0.1073  0.04291  -6.1779E-07  2.7089E-06  2.7784E-06  102.847
   154   31   1.1800   0.0429   0.1073  0.04291  -8.7564E-04 -1.0581E-03  1.3735E-03 -129.609
   155   31   1.1800   0.0858   0.1073  0.04291  -1.7018E-03 -2.0638E-03  2.6750E-03 -129.510
   156   32   1.1800  -0.1073  -0.0858  0.04291   2.4254E-03  2.9604E-03  3.8271E-03   50.673
   157   32   1.1800  -0.1073  -0.0429  0.04291   2.8720E-03  3.5079E-03  4.5336E-03   50.693
   158   32   1.1800  -0.1073   0.0000  0.04291   3.0221E-03  3.6915E-03  4.7708E-03   50.694
   159   32   1.1800  -0.1073   0.0429  0.04291   2.8720E-03  3.5079E-03  4.5336E-03   50.693
   160   32   1.1800  -0.1073   0.0858  0.04291   2.4254E-03  2.9604E-03  3.8271E-03   50.673
   161   33   1.3769   0.1057   0.0845  0.04227  -3.0989E-03 -1.0487E-03  3.2716E-03 -161.304
   162   33   1.3769   0.1057   0.0423  0.04227  -3.6522E-03 -1.2408E-03  3.8573E-03 -161.236
   163   33   1.3769   0.1057   0.0000  0.04227  -3.8380E-03 -1.3067E-03  4.0543E-03 -161.198
   164   33   1.3769   0.1057  -0.0423  0.04227  -3.6522E-03 -1.2408E-03  3.8573E-03 -161.236
   165   33   1.3769   0.1057  -0.0845  0.04227  -3.0989E-03 -1.0487E-03  3.2716E-03 -161.304
   166   34   1.3769   0.0845  -0.1057  0.04227  -2.1324E-03 -7.2751E-04  2.2530E-03 -161.162
   167   34   1.3769   0.0423  -0.1057  0.04227  -1.0946E-03 -3.7471E-04  1.1570E-03 -161.102
   168   34   1.3769   0.0000  -0.1057  0.04227   2.1002E-06  1.6013E-06  2.6410E-06   37.323
   169   34   1.3769  -0.0423  -0.1057  0.04227   1.0989E-03  3.7795E-04  1.1621E-03   18.979
   170   34   1.3769  -0.0845  -0.1057  0.04227   2.1372E-03  7.3087E-04  2.2587E-03   18.880
   171   35   1.3769  -0.0845   0.1057  0.04227   2.1372E-03  7.3087E-04  2.2587E-03   18.880
   172   35   1.3769  -0.0423   0.1057  0.04227   1.0989E-03  3.7795E-04  1.1621E-03   18.979
   173   35   1.3769   0.0000   0.1057  0.04227   2.1002E-06  1.6013E-06  2.6410E-06   37.323
   174   35   1.3769   0.0423   0.1057  0.04227  -1.0946E-03 -3.7471E-04  1.1570E-03 -161.102
   175   35   1.3769   0.0845   0.1057  0.04227  -2.1324E-03 -7.2751E-04  2.2530E-03 -161.162
   176   36   1.3769  -0.1057  -0.0845  0.04227   3.1047E-03  1.0523E-03  3.2782E-03   18.724
   177   36   1.3769  -0.1057  -0.0423  0.04227   3.6586E-03  1.2446E-03  3.8645E-03   18.788
   178   36   1.3769  -0.1057   0.0000  0.04227   3.8445E-03  1.3106E-03  4.0618E-03   18.825
   179   36   1.3769  -0.1057   0.0423  0.04227   3.6586E-03  1.2446E-03  3.8645E-03   18.788
   180   36   1.3769  -0.1057   0.0845  0.04227   3.1047E-03  1.0523E-03  3.2782E-03   18.724
   181   37   1.5738   0.1273   0.1018  0.05091   3.7146E-03  6.1339E-03  7.1710E-03   58.802
   182   37   1.5738   0.1273   0.0509  0.05091   4.3820E-03  7.2278E-03  8.4524E-03   58.773
   183   37   1.5738   0.1273   0.0000  0.05091   4.6142E-03  7.6032E-03  8.8937E-03   58.748
   184   37   1.5738   0.1273  -0.0509  0.05091   4.3820E-03  7.2278E-03  8.4524E-03   58.773
   185   37   1.5738   0.1273  -0.1018  0.05091   3.7146E-03  6.1339E-03  7.1710E-03   58.802
   186   38   1.5738   0.1018  -0.1273  0.05091   2.6528E-03  4.3558E-03  5.1000E-03   58.658
   187   38   1.5738   0.0509  -0.1273  0.05091   1.3916E-03  2.2757E-03  2.6675E-03   58.553
   188   38   1.5738   0.0000  -0.1273  0.05091   1.4583E-06 -1.0669E-06  1.8070E-06  -36.190
   189   38   1.5738  -0.0509  -0.1273  0.05091  -1.3886E-03 -2.2780E-03  2.6679E-03 -121.365
   190   38   1.5738  -0.1018  -0.1273  0.05091  -2.6493E-03 -4.3587E-03  5.1007E-03 -121.292
   191   39   1.5738  -0.1018   0.1273  0.05091  -2.6493E-03 -4.3587E-03  5.1007E-03 -121.292
   192   39   1.5738  -0.0509   0.1273  0.05091  -1.3886E-03 -2.2780E-03  2.6679E-03 -121.365
   193   39   1.5738   0.0000   0.1273  0.05091   1.4583E-06 -1.0670E-06  1.8069E-06  -36.191
   194   39   1.5738   0.0509   0.1273  0.05091   1.3916E-03  2.2757E-03  2.6675E-03   58.553
   195   39   1.5738   0.1018   0.1273  0.05091   2.6528E-03  4.3558E-03  5.1000E-03   58.658
   196   40   1.5738  -0.1273  -0.1018  0.05091  -3.7103E-03 -6.1379E-03  7.1722E-03 -121.153
   197   40   1.5738  -0.1273  -0.0509  0.05091  -4.3772E-03 -7.2324E-03  8.4539E-03 -121.183
   198   40   1.5738  -0.1273   0.0000  0.05091  -4.6092E-03 -7.6080E-03  8.8953E-03 -121.209
   199   40   1.5738  -0.1273   0.0509  0.05091  -4.3772E-03 -7.2324E-03  8.4539E-03 -121.183
   200   40   1.5738  -0.1273   0.1018  0.05091  -3.7103E-03 -6.1379E-03  7.1722E-03 -121.153



                                        - - - POWER BUDGET - - -

                                           INPUT POWER   = 8.0063E-03 WATTS
                                           RADIATED POWER= 8.0063E-03 WATTS
                                           STRUCTURE LOSS= 0.0000E+00 WATTS
                                           NETWORK LOSS  = 0.0000E+00 WATTS
                                           EFFICIENCY    = 100.00 PERCENT



                                                - - - RADIATION PATTERNS - - -

  - - ANGLES - -           - POWER GAINS -       - - - POLARIZATION - - -    - - - E(THETA) - - -    - - - E(PHI) - - -
  THETA     PHI        VERT.   HOR.    TOTAL      AXIAL     TILT   SENSE     MAGNITUDE    PHASE      MAGNITUDE    PHASE 
 DEGREES  DEGREES       DB      DB      DB        RATIO     DEG.              VOLTS/M    DEGREES      VOLTS/M    DEGREES
    0.00     0.00    -999.99  -18.72  -18.72    0.00000    90.00  LINEAR    0.00000E+00     0.00    8.03001E-02   -80.92
    2.00     0.00     -32.58  -18.74  -18.56    0.17223   -83.82  RIGHT     1.62880E-02    40.19    8.00928E-02   -80.89
    4.00     0.00     -24.86  -18.77  -17.81    0.32723   -69.31  RIGHT     3.95958E-02    51.16    7.98388E-02   -80.89
    6.00     0.00     -20.28  -18.80  -16.47    0.33512   -51.10  RIGHT     6.70917E-02    61.39    7.95442E-02   -80.92
    8.00     0.00     -17.22  -18.84  -14.95    0.24230   -39.04  RIGHT     9.53803E-02    71.26    7.92136E-02   -80.98
   10.00     0.00     -15.17  -18.88  -13.63    0.14400   -32.59  RIGHT     1.20834E-01    80.98    7.88492E-02   -81.07
   12.00     0.00     -13.89  -18.92  -12.71    0.06066   -29.15  RIGHT     1.39933E-01    90.68    7.84510E-02   -81.18
   14.00     0.00     -13.31  -18.97  -12.27    0.01313   -27.53  LEFT      1.49604E-01   100.54    7.80163E-02   -81.30
   16.00     0.00     -13.44  -19.02  -12.38    0.08800   -27.42  LEFT      1.47531E-01   110.81    7.75397E-02   -81.43
   18.00     0.00     -14.37  -19.08  -13.11    0.17972   -29.07  LEFT      1.32456E-01   122.05    7.70143E-02   -81.57
   20.00     0.00     -16.43  -19.15  -14.57    0.31909   -34.07  LEFT      1.04556E-01   135.72    7.64321E-02   -81.71
   22.00     0.00     -20.33  -19.22  -16.73    0.56188   -52.04  LEFT      6.67362E-02   157.57    7.57847E-02   -81.86
   24.00     0.00     -25.42  -19.30  -18.35    0.39449    73.09  LEFT      3.71168E-02  -141.24    7.50643E-02   -82.02
   26.00     0.00     -20.02  -19.40  -16.69    0.09435    47.09  RIGHT     6.91169E-02   -71.38    7.42641E-02   -82.18
   28.00     0.00     -14.64  -19.50  -13.42    0.26434    27.14  RIGHT     1.28378E-01   -47.36    7.33793E-02   -82.36
   30.00     0.00     -11.22  -19.62  -10.64    0.26910    15.13  RIGHT     1.90328E-01   -33.52    7.24065E-02   -82.55
   32.00     0.00      -8.94  -19.75   -8.59    0.24455     8.69  RIGHT     2.47573E-01   -22.61    7.13442E-02   -82.75
   34.00     0.00      -7.43  -19.89   -7.19    0.22245     4.88  RIGHT     2.94660E-01   -12.87    7.01921E-02   -82.97
   36.00     0.00      -6.53  -20.04   -6.34    0.20720     2.28  RIGHT     3.26826E-01    -3.59    6.89510E-02   -83.21
   38.00     0.00      -6.18  -20.21   -6.01    0.19884     0.18  RIGHT     3.40041E-01     5.67    6.76219E-02   -83.47
   40.00     0.00      -6.41  -20.39   -6.24    0.19709    -1.90  RIGHT     3.31292E-01    15.42    6.62060E-02   -83.74
   42.00     0.00      -7.30  -20.59   -7.10    0.20139    -4.52  RIGHT     2.99071E-01    26.51    6.47036E-02   -84.03
   44.00     0.00      -9.04  -20.81   -8.76    0.20561    -8.87  RIGHT     2.44662E-01    41.03    6.31143E-02   -84.32
   46.00     0.00     -11.83  -21.04  -11.34    0.15902   -17.11  RIGHT     1.77528E-01    65.25    6.14370E-02   -84.63
   48.00     0.00     -13.83  -21.30  -13.11    0.11676   -22.16  LEFT      1.40963E-01   113.79    5.96691E-02   -84.93
   50.00     0.00     -10.37  -21.57  -10.05    0.25367    -6.11  LEFT      2.10023E-01   163.44    5.78076E-02   -85.23
   52.00     0.00      -5.83  -21.87   -5.73    0.15750     0.53  LEFT      3.53998E-01  -172.27    5.58488E-02   -85.53
   54.00     0.00      -2.28  -22.20   -2.23    0.09640     1.70  LEFT      5.33163E-01  -158.82    5.37889E-02   -85.81
   56.00     0.00       0.50  -22.56    0.53    0.06285     1.80  LEFT      7.34294E-01  -149.57    5.16240E-02   -86.08
   58.00     0.00       2.75  -22.95    2.76    0.04301     1.66  LEFT      9.50672E-01  -142.35    4.93510E-02   -86.33
   60.00     0.00       4.60  -23.38    4.61    0.03044     1.48  LEFT      1.17713E+00  -136.33    4.69674E-02   -86.56
   62.00     0.00       6.17  -23.85    6.17    0.02205     1.29  LEFT      1.40905E+00  -131.12    4.44718E-02   -86.77
   64.00     0.00       7.50  -24.38    7.50    0.01623     1.13  LEFT      1.64211E+00  -126.52    4.18641E-02   -86.97
   66.00     0.00       8.63  -24.96    8.64    0.01207     0.98  LEFT      1.87229E+00  -122.43    3.91456E-02   -87.14
   68.00     0.00       9.61  -25.61    9.62    0.00905     0.85  LEFT      2.09592E+00  -118.77    3.63188E-02   -87.30
   70.00     0.00      10.46  -26.34   10.46    0.00680     0.73  LEFT      2.30968E+00  -115.51    3.33876E-02   -87.43
   72.00     0.00      11.18  -27.17   11.18    0.00512     0.63  LEFT      2.51063E+00  -112.60    3.03573E-02   -87.55
   74.00     0.00      11.80  -28.11   11.80    0.00384     0.54  LEFT      2.69623E+00  -110.03    2.72345E-02   -87.66
   76.00     0.00      12.33  -29.20   12.33    0.00288     0.45  LEFT      2.86434E+00  -107.79    2.40266E-02   -87.74
   78.00     0.00      12.77  -30.48   12.77    0.00213     0.38  LEFT      3.01317E+00  -105.87    2.07422E-02   -87.82
   80.00     0.00      13.13  -32.01   13.13    0.00156     0.30  LEFT      3.14126E+00  -104.25    1.73908E-02   -87.88
   82.00     0.00      13.42  -33.90   13.42    0.00111     0.24  LEFT      3.24747E+00  -102.93    1.39825E-02   -87.92
   84.00     0.00      13.64  -36.37   13.64    0.00076     0.18  LEFT      3.33092E+00  -101.91    1.05279E-02   -87.96
   86.00     0.00      13.79  -39.86   13.79    0.00047     0.12  LEFT      3.39095E+00  -101.18    7.03826E-03   -87.99
   88.00     0.00      13.89  -45.87   13.89    0.00023     0.06  LEFT      3.42715E+00  -100.75    3.52505E-03   -88.00
   90.00     0.00      13.92 -164.34   13.92    0.00000     0.00  LINEAR    3.43924E+00  -100.60    4.20541E-09    24.34
   92.00     0.00      13.89  -45.87   13.89    0.00023    -0.06  RIGHT     3.42715E+00  -100.75    3.52505E-03    92.00
   94.00     0.00      13.79  -39.86   13.79    0.00047    -0.12  RIGHT     3.39095E+00  -101.18    7.03826E-03    92.01
   96.00     0.00      13.64  -36.37   13.64    0.00076    -0.18  RIGHT     3.33092E+00  -101.91    1.05279E-02    92.04
   98.00     0.00      13.42  -33.90   13.42    0.00111    -0.24  RIGHT     3.24747E+00  -102.93    1.39825E-02    92.08
  100.00     0.00      13.13  -32.01   13.13    0.00156    -0.30  RIGHT     3.14126E+00  -104.25    1.73908E-02    92.12
  102.00     0.00      12.77  -30.48   12.77    0.00213    -0.38  RIGHT     3.01317E+00  -105.87    2.07422E-02    92.18
  104.00     0.00      12.33  -29.20   12.33    0.00288    -0.45  RIGHT     2.86434E+00  -107.79    2.40266E-02    92.26
  106.00     0.00      11.80  -28.11   11.80    0.00384    -0.54  RIGHT     2.69623E+00  -110.03    2.72345E-02    92.34
  108.00     0.00      11.18  -27.17   11.18    0.00512    -0.63  RIGHT     2.51063E+00  -112.60    3.03573E-02    92.45
  110.00     0.00      10.46  -26.34   10.46    0.00680    -0.73  RIGHT     2.30968E+00  -115.51    3.33876E-02    92.57
  112.00     0.00       9.61  -25.61    9.62    0.00905    -0.85  RIGHT     2.09592E+00  -118.77    3.63188E-02    92.70
  114.00     0.00       8.63  -24.96    8.64    0.01207    -0.98  RIGHT     1.87229E+00  -122.43    3.91456E-02    92.86
  116.00     0.00       7.50  -24.38    7.50    0.01623    -1.13  RIGHT     1.64211E+00  -126.52    4.18641E-02    93.03
  118.00     0.00       6.17  -23.85    6.17    0.02205    -1.29  RIGHT     1.40905E+00  -131.12    4.44718E-02    93.23
  120.00     0.00       4.60  -23.38    4.61    0.03044    -1.48  RIGHT     1.17713E+00  -136.33    4.69674E-02    93.44
  122.00     0.00       2.75  -22.95    2.76    0.04301    -1.66  RIGHT     9.50672E-01  -142.35    4.93510E-02    93.67
  124.00     0.00       0.50  -22.56    0.53    0.06285    -1.80  RIGHT     7.34294E-01  -149.57    5.16240E-02    93.92
  126.00     0.00      -2.28  -22.20   -2.23    0.09640    -1.70  RIGHT     5.33163E-01  -158.82    5.37889E-02    94.19
  128.00     0.00      -5.83  -21.87   -5.73    0.15750    -0.53  RIGHT     3.53998E-01  -172.27    5.58488E-02    94.47
  130.00     0.00     -10.37  -21.57  -10.05    0.25367     6.11  RIGHT     2.10023E-01   163.44    5.78076E-02    94.77
  132.00     0.00     -13.83  -21.30  -13.11    0.11676    22.16  RIGHT     1.40963E-01   113.79    5.96691E-02    95.07
  134.00     0.00     -11.83  -21.04  -11.34    0.15902    17.11  LEFT      1.77528E-01    65.25    6.14370E-02    95.37
  136.00     0.00      -9.04  -20.81   -8.76    0.20561     8.87  LEFT      2.44662E-01    41.03    6.31143E-02    95.68
  138.00     0.00      -7.30  -20.59   -7.10    0.20139     4.52  LEFT      2.99071E-01    26.51    6.47036E-02    95.97
  140.00     0.00      -6.41  -20.39   -6.24    0.19709     1.90  LEFT      3.31292E-01    15.42    6.62060E-02    96.26
  142.00     0.00      -6.18  -20.21   -6.01    0.19884    -0.18  LEFT      3.40041E-01     5.67    6.76219E-02    96.53
  144.00     0.00      -6.53  -20.04   -6.34    0.20720    -2.28  LEFT      3.26826E-01    -3.59    6.89510E-02    96.79
  146.00     0.00      -7.43  -19.89   -7.19    0.22245    -4.88  LEFT      2.94660E-01   -12.87    7.01921E-02    97.03
  148.00     0.00      -8.94  -19.75   -8.59    0.24455    -8.69  LEFT      2.47573E-01   -22.61    7.13442E-02    97.25
  150.00     0.00     -11.22  -19.62  -10.64    0.26910   -15.13  LEFT      1.90328E-01   -33.52    7.24065E-02    97.45
  152.00     0.00     -14.64  -19.50  -13.42    0.26434   -27.14  LEFT      1.28378E-01   -47.36    7.33793E-02    97.64
  154.00     0.00     -20.02  -19.40  -16.69    0.09435   -47.09  LEFT      6.91169E-02   -71.38    7.42641E-02    97.82
  156.00     0.00     -25.42  -19.30  -18.35    0.39449   -73.09  RIGHT     3.71168E-02  -141.24    7.50643E-02    97.98
  158.00     0.00     -20.33  -19.22  -16.73    0.56188    52.04  RIGHT     6.67362E-02   157.57    7.57847E-02    98.14
  160.00     0.00     -16.43  -19.15  -14.57    0.31909    34.07  RIGHT     1.04556E-01   135.72    7.64321E-02    98.29
  162.00     0.00     -14.37  -19.08  -13.11    0.17972    29.07  RIGHT     1.32456E-01   122.05    7.70143E-02    98.43
  164.00     0.00     -13.44  -19.02  -12.38    0.08800    27.42  RIGHT     1.47531E-01   110.81    7.75397E-02    98.57
  166.00     0.00     -13.31  -18.97  -12.27    0.01313    27.53  RIGHT     1.49604E-01   100.54    7.80163E-02    98.70
  168.00     0.00     -13.89  -18.92  -12.71    0.06066    29.15  LEFT      1.39933E-01    90.68    7.84510E-02    98.82
  170.00     0.00     -15.17  -18.88  -13.63    0.14400    32.59  LEFT      1.20834E-01    80.98    7.88492E-02    98.93
  172.00     0.00     -17.22  -18.84  -14.95    0.24230    39.04  LEFT      9.53803E-02    71.26    7.92136E-02    99.02
  174.00     0.00     -20.28  -18.80  -16.47    0.33512    51.10  LEFT      6.70917E-02    61.39    7.95442E-02    99.08
  176.00     0.00     -24.86  -18.77  -17.81    0.32723    69.31  LEFT      3.95958E-02    51.16    7.98388E-02    99.11
  178.00     0.00     -32.58  -18.74  -18.56    0.17223    83.82  LEFT      1.62880E-02    40.19    8.00928E-02    99.11
  180.00     0.00    -999.99  -18.72  -18.72    0.00000   -90.00  LINEAR    3.52136E-12  -152.49    8.03001E-02    99.08
  182.00     0.00     -39.46  -18.70  -18.67    0.09168   -89.94  RIGHT     7.37641E-03  -170.35    8.04540E-02    99.02
  184.00     0.00     -40.64  -18.69  -18.66    0.05599    86.74  RIGHT     6.43310E-03   143.63    8.05479E-02    98.93
  186.00     0.00     -34.25  -18.69  -18.57    0.12188    83.51  LEFT      1.34309E-02    51.04    8.05759E-02    98.82
  188.00     0.00     -25.75  -18.69  -17.91    0.42681    82.93  LEFT      3.57435E-02    21.85    8.05336E-02    98.68
  190.00     0.00     -20.37  -18.71  -16.45    0.82331   -85.01  LEFT      6.64084E-02     6.58    8.04178E-02    98.53
  192.00     0.00     -16.63  -18.73  -14.54    0.70858   -22.20  LEFT      1.02134E-01    -5.45    8.02272E-02    98.36
  194.00     0.00     -13.91  -18.76  -12.68    0.48445   -17.64  LEFT      1.39603E-01   -16.34    7.99614E-02    98.18
  196.00     0.00     -11.93  -18.79  -11.12    0.34623   -16.57  LEFT      1.75345E-01   -26.78    7.96210E-02    98.00
  198.00     0.00     -10.54  -18.84   -9.94    0.25222   -16.26  LEFT      2.05997E-01   -37.11    7.92067E-02    97.82
  200.00     0.00      -9.63  -18.89   -9.14    0.18143   -16.34  LEFT      2.28600E-01   -47.57    7.87188E-02    97.64
  202.00     0.00      -9.18  -18.95   -8.74    0.12179   -16.75  LEFT      2.40893E-01   -58.41    7.81573E-02    97.46
  204.00     0.00      -9.15  -19.02   -8.73    0.06446   -17.45  LEFT      2.41593E-01   -69.98    7.75207E-02    97.27
  206.00     0.00      -9.55  -19.10   -9.09    0.00046   -18.41  LEFT      2.30716E-01   -82.83    7.68065E-02    97.08
  208.00     0.00     -10.37  -19.20   -9.83    0.08225   -19.42  RIGHT     2.10041E-01   -97.90    7.60110E-02    96.89
  210.00     0.00     -11.52  -19.30  -10.85    0.20102   -19.62  RIGHT     1.84027E-01  -116.81    7.51297E-02    96.70
  212.00     0.00     -12.65  -19.41  -11.82    0.36546   -15.75  RIGHT     1.61477E-01  -141.72    7.41573E-02    96.51
  214.00     0.00     -12.96  -19.54  -12.09    0.46871    -0.71  RIGHT     1.55881E-01  -172.50    7.30882E-02    96.31
  216.00     0.00     -11.87  -19.68  -11.20    0.34141    12.62  RIGHT     1.76679E-01   157.23    7.19170E-02    96.10
  218.00     0.00     -10.00  -19.83   -9.57    0.18425    14.85  RIGHT     2.18990E-01   133.49    7.06384E-02    95.90
  220.00     0.00      -8.13  -20.00   -7.86    0.08378    13.54  RIGHT     2.71607E-01   116.03    6.92479E-02    95.70
  222.00     0.00      -6.56  -20.20   -6.37    0.02514    11.67  RIGHT     3.25691E-01   102.73    6.77418E-02    95.49
  224.00     0.00      -5.32  -20.41   -5.19    0.00969     9.98  LEFT      3.75348E-01    92.04    6.61171E-02    95.29
  226.00     0.00      -4.42  -20.64   -4.32    0.03148     8.60  LEFT      4.16556E-01    83.07    6.43718E-02    95.10
  228.00     0.00      -3.82  -20.89   -3.73    0.04607     7.53  LEFT      4.46539E-01    75.34    6.25047E-02    94.91
  230.00     0.00      -3.49  -21.18   -3.42    0.05675     6.71  LEFT      4.63500E-01    68.58    6.05157E-02    94.72
  232.00     0.00      -3.44  -21.48   -3.37    0.06543     6.09  LEFT      4.66481E-01    62.64    5.84050E-02    94.55
  234.00     0.00      -3.65  -21.82   -3.58    0.07337     5.67  LEFT      4.55284E-01    57.48    5.61738E-02    94.38
  236.00     0.00      -4.14  -22.19   -4.07    0.08150     5.42  LEFT      4.30395E-01    53.12    5.38237E-02    94.23
  238.00     0.00      -4.93  -22.60   -4.85    0.09068     5.38  LEFT      3.92920E-01    49.66    5.13572E-02    94.08
  240.00     0.00      -6.07  -23.05   -5.98    0.10184     5.62  LEFT      3.44545E-01    47.37    4.87769E-02    93.94
  242.00     0.00      -7.64  -23.54   -7.53    0.11585     6.32  LEFT      2.87580E-01    46.79    4.60863E-02    93.82
  244.00     0.00      -9.76  -24.09   -9.60    0.13225     7.94  LEFT      2.25285E-01    49.16    4.32893E-02    93.70
  246.00     0.00     -12.56  -24.69  -12.30    0.13977    11.55  LEFT      1.63207E-01    57.59    4.03903E-02    93.59
  248.00     0.00     -15.64  -25.36  -15.20    0.07063    17.69  LEFT      1.14471E-01    79.72    3.73943E-02    93.50
  250.00     0.00     -16.15  -26.11  -15.73    0.12220    16.37  RIGHT     1.07917E-01   118.05    3.43068E-02    93.41
  252.00     0.00     -13.31  -26.95  -13.12    0.16112     7.49  RIGHT     1.49732E-01   145.32    3.11341E-02    93.33
  254.00     0.00     -10.35  -27.91  -10.27    0.11857     3.38  RIGHT     2.10520E-01   157.19    2.78828E-02    93.26
  256.00     0.00      -8.05  -29.01   -8.02    0.08361     1.84  RIGHT     2.74168E-01   162.32    2.45600E-02    93.20
  258.00     0.00      -6.32  -30.30   -6.30    0.05997     1.16  RIGHT     3.34666E-01   164.63    2.11735E-02    93.14
  260.00     0.00      -5.01  -31.84   -5.00    0.04347     0.78  RIGHT     3.89077E-01   165.64    1.77315E-02    93.10
  262.00     0.00      -4.03  -33.74   -4.03    0.03126     0.55  RIGHT     4.35580E-01   166.04    1.42426E-02    93.06
  264.00     0.00      -3.32  -36.21   -3.32    0.02168     0.38  RIGHT     4.72911E-01   166.14    1.07156E-02    93.03
  266.00     0.00      -2.83  -39.71   -2.83    0.01370     0.24  RIGHT     5.00177E-01   166.12    7.15982E-03    93.01
  268.00     0.00      -2.55  -45.72   -2.55    0.00664     0.12  RIGHT     5.16771E-01   166.08    3.58476E-03    93.00
  270.00     0.00      -2.45 -174.30   -2.45    0.00000     0.00  LINEAR    5.22341E-01   166.06    1.33585E-09   112.37
  272.00     0.00      -2.55  -45.72   -2.55    0.00664    -0.12  LEFT      5.16771E-01   166.08    3.58475E-03   -87.00
  274.00     0.00      -2.83  -39.71   -2.83    0.01370    -0.24  LEFT      5.00177E-01   166.12    7.15982E-03   -86.99
  276.00     0.00      -3.32  -36.21   -3.32    0.02168    -0.38  LEFT      4.72911E-01   166.14    1.07156E-02   -86.97
  278.00     0.00      -4.03  -33.74   -4.03    0.03126    -0.55  LEFT      4.35580E-01   166.04    1.42426E-02   -86.94
  280.00     0.00      -5.01  -31.84   -5.00    0.04347    -0.78  LEFT      3.89077E-01   165.64    1.77315E-02   -86.90
  282.00     0.00      -6.32  -30.30   -6.30    0.05997    -1.16  LEFT      3.34666E-01   164.63    2.11735E-02   -86.86
  284.00     0.00      -8.05  -29.01   -8.02    0.08361    -1.84  LEFT      2.74168E-01   162.32    2.45600E-02   -86.80
  286.00     0.00     -10.35  -27.91  -10.27    0.11857    -3.38  LEFT      2.10520E-01   157.19    2.78828E-02   -86.74
  288.00     0.00     -13.31  -26.95  -13.12    0.16112    -7.49  LEFT      1.49732E-01   145.32    3.11341E-02   -86.67
  290.00     0.00     -16.15  -26.11  -15.73    0.12220   -16.37  LEFT      1.07917E-01   118.05    3.43068E-02   -86.59
  292.00     0.00     -15.64  -25.36  -15.20    0.07063   -17.69  RIGHT     1.14471E-01    79.72    3.73943E-02   -86.50
  294.00     0.00     -12.56  -24.69  -12.30    0.13977   -11.55  RIGHT     1.63207E-01    57.59    4.03903E-02   -86.41
  296.00     0.00      -9.76  -24.09   -9.60    0.13225    -7.94  RIGHT     2.25285E-01    49.16    4.32893E-02   -86.30
  298.00     0.00      -7.64  -23.54   -7.53    0.11585    -6.32  RIGHT     2.87580E-01    46.79    4.60863E-02   -86.18
  300.00     0.00      -6.07  -23.05   -5.98    0.10184    -5.62  RIGHT     3.44545E-01    47.37    4.87769E-02   -86.06
  302.00     0.00      -4.93  -22.60   -4.85    0.09068    -5.38  RIGHT     3.92920E-01    49.66    5.13572E-02   -85.92
  304.00     0.00      -4.14  -22.19   -4.07    0.08150    -5.42  RIGHT     4.30395E-01    53.12    5.38237E-02   -85.77
  306.00     0.00      -3.65  -21.82   -3.58    0.07337    -5.67  RIGHT     4.55284E-01    57.48    5.61738E-02   -85.62
  308.00     0.00      -3.44  -21.48   -3.37    0.06543    -6.09  RIGHT     4.66481E-01    62.64    5.84050E-02   -85.45
  310.00     0.00      -3.49  -21.18   -3.42    0.05675    -6.71  RIGHT     4.63500E-01    68.58    6.05157E-02   -85.28
  312.00     0.00      -3.82  -20.89   -3.73    0.04607    -7.53  RIGHT     4.46539E-01    75.34    6.25047E-02   -85.09
  314.00     0.00      -4.42  -20.64   -4.32    0.03148    -8.60  RIGHT     4.16556E-01    83.07    6.43718E-02   -84.90
  316.00     0.00      -5.32  -20.41   -5.19    0.00969    -9.98  RIGHT     3.75348E-01    92.04    6.61171E-02   -84.71
  318.00     0.00      -6.56  -20.20   -6.37    0.02514   -11.67  LEFT      3.25691E-01   102.73    6.77418E-02   -84.51
  320.00     0.00      -8.13  -20.00   -7.86    0.08378   -13.54  LEFT      2.71607E-01   116.03    6.92479E-02   -84.30
  322.00     0.00     -10.00  -19.83   -9.57    0.18425   -14.85  LEFT      2.18990E-01   133.49    7.06384E-02   -84.10
  324.00     0.00     -11.87  -19.68  -11.20    0.34141   -12.62  LEFT      1.76679E-01   157.23    7.19170E-02   -83.90
  326.00     0.00     -12.96  -19.54  -12.09    0.46871     0.71  LEFT      1.55881E-01  -172.50    7.30882E-02   -83.69
  328.00     0.00     -12.65  -19.41  -11.82    0.36546    15.75  LEFT      1.61477E-01  -141.72    7.41573E-02   -83.49
  330.00     0.00     -11.52  -19.30  -10.85    0.20102    19.62  LEFT      1.84027E-01  -116.81    7.51297E-02   -83.30
  332.00     0.00     -10.37  -19.20   -9.83    0.08225    19.42  LEFT      2.10041E-01   -97.90    7.60110E-02   -83.11
  334.00     0.00      -9.55  -19.10   -9.09    0.00046    18.41  RIGHT     2.30716E-01   -82.83    7.68065E-02   -82.92
  336.00     0.00      -9.15  -19.02   -8.73    0.06446    17.45  RIGHT     2.41593E-01   -69.98    7.75207E-02   -82.73
  338.00     0.00      -9.18  -18.95   -8.74    0.12179    16.75  RIGHT     2.40893E-01   -58.41    7.81573E-02   -82.54
  340.00     0.00      -9.63  -18.89   -9.14    0.18143    16.34  RIGHT     2.28600E-01   -47.57    7.87188E-02   -82.36
  342.00     0.00     -10.54  -18.84   -9.94    0.25222    16.26  RIGHT     2.05997E-01   -37.11    7.92067E-02   -82.18
  344.00     0.00     -11.93  -18.79  -11.12    0.34623    16.57  RIGHT     1.75345E-01   -26.78    7.96210E-02   -82.00
  346.00     0.00     -13.91  -18.76  -12.68    0.48445    17.64  RIGHT     1.39603E-01   -16.34    7.99614E-02   -81.82
  348.00     0.00     -16.63  -18.73  -14.54    0.70858    22.20  RIGHT     1.02134E-01    -5.45    8.02272E-02   -81.64
  350.00     0.00     -20.37  -18.71  -16.45    0.82331    85.01  RIGHT     6.64084E-02     6.58    8.04178E-02   -81.47
  352.00     0.00     -25.75  -18.69  -17.91    0.42681   -82.93  RIGHT     3.57435E-02    21.85    8.05336E-02   -81.32
  354.00     0.00     -34.25  -18.69  -18.57    0.12188   -83.51  RIGHT     1.34309E-02    51.04    8.05759E-02   -81.18
  356.00     0.00     -40.64  -18.69  -18.66    0.05599   -86.74  LEFT      6.43310E-03   143.63    8.05479E-02   -81.07
  358.00     0.00     -39.46  -18.70  -18.67    0.09168    89.94  LEFT      7.37641E-03  -170.35    8.04540E-02   -80.98
  360.00     0.00    -999.99  -18.72  -18.72    0.00000   -90.00  LINEAR    7.04272E-12    27.51    8.03001E-02   -80.92
    0.00     2.00     -47.86  -18.72  -18.72    0.00000    88.00  LINEAR    2.80243E-03   -80.92    8.02511E-02   -80.92
    2.00     2.00     -33.27  -18.74  -18.59    0.17314   -85.87  RIGHT     1.50328E-02    31.01    8.01309E-02   -80.93
    4.00     2.00     -25.27  -18.75  -17.87    0.33331   -71.31  RIGHT     3.77738E-02    48.00    8.00332E-02   -80.99
    6.00     2.00     -20.57  -18.76  -16.56    0.34495   -52.57  RIGHT     6.48976E-02    59.87    7.99590E-02   -81.08
    8.00     2.00     -17.45  -18.76  -15.05    0.24983   -40.11  RIGHT     9.29232E-02    70.44    7.98897E-02   -81.15
   10.00     2.00     -15.36  -18.77  -13.73    0.14854   -33.50  RIGHT     1.18211E-01    80.53    7.97914E-02   -81.21
   12.00     2.00     -14.06  -18.79  -12.80    0.06292   -29.99  RIGHT     1.37242E-01    90.47    7.96217E-02   -81.23
   14.00     2.00     -13.47  -18.82  -12.36    0.01266   -28.36  LEFT      1.46943E-01   100.52    7.93380E-02   -81.22
   16.00     2.00     -13.59  -18.87  -12.46    0.08923   -28.25  LEFT      1.45007E-01   110.97    7.89061E-02   -81.20
   18.00     2.00     -14.52  -18.94  -13.18    0.18300   -29.96  LEFT      1.30187E-01   122.43    7.83065E-02   -81.21
   20.00     2.00     -16.58  -19.02  -14.62    0.32545   -35.10  LEFT      1.02705E-01   136.48    7.75373E-02   -81.25
   22.00     2.00     -20.46  -19.13  -16.73    0.57094   -53.73  LEFT      6.56953E-02   159.25    7.66149E-02   -81.37
   24.00     2.00     -25.12  -19.25  -18.25    0.39091    71.65  LEFT      3.84241E-02  -138.65    7.55699E-02   -81.58
   26.00     2.00     -19.77  -19.38  -16.56    0.08666    46.31  RIGHT     7.11618E-02   -71.97    7.44417E-02   -81.89
   28.00     2.00     -14.54  -19.51  -13.34    0.25630    26.91  RIGHT     1.29929E-01   -48.10    7.32710E-02   -82.30
   30.00     2.00     -11.17  -19.66  -10.60    0.26483    15.06  RIGHT     1.91463E-01   -34.15    7.20920E-02   -82.78
   32.00     2.00      -8.91  -19.80   -8.57    0.24242     8.60  RIGHT     2.48377E-01   -23.17    7.09265E-02   -83.31
   34.00     2.00      -7.41  -19.94   -7.17    0.22131     4.75  RIGHT     2.95213E-01   -13.39    6.97794E-02   -83.85
   36.00     2.00      -6.52  -20.08   -6.33    0.20649     2.12  RIGHT     3.27204E-01    -4.09    6.86386E-02   -84.37
   38.00     2.00      -6.18  -20.23   -6.01    0.19828     0.00  RIGHT     3.40320E-01     5.18    6.74772E-02   -84.82
   40.00     2.00      -6.40  -20.39   -6.23    0.19651    -2.09  RIGHT     3.31534E-01    14.91    6.62582E-02   -85.19
   42.00     2.00      -7.29  -20.56   -7.09    0.20070    -4.72  RIGHT     2.99304E-01    25.95    6.49404E-02   -85.46
   44.00     2.00      -9.04  -20.76   -8.75    0.20494    -9.04  RIGHT     2.44814E-01    40.34    6.34844E-02   -85.62
   46.00     2.00     -11.84  -20.98  -11.34    0.15965   -17.27  RIGHT     1.77200E-01    64.30    6.18577E-02   -85.68
   48.00     2.00     -13.95  -21.24  -13.21    0.11686   -22.60  LEFT      1.39051E-01   112.81    6.00375E-02   -85.66
   50.00     2.00     -10.50  -21.54  -10.17    0.25841    -6.22  LEFT      2.06918E-01   163.16    5.80126E-02   -85.58
   52.00     2.00      -5.92  -21.88   -5.81    0.15894     0.50  LEFT      3.50447E-01  -172.37    5.57834E-02   -85.45
   54.00     2.00      -2.34  -22.27   -2.30    0.09666     1.65  LEFT      5.29168E-01  -158.90    5.33606E-02   -85.30
   56.00     2.00       0.45  -22.70    0.47    0.06273     1.72  LEFT      7.29799E-01  -149.66    5.07632E-02   -85.15
   58.00     2.00       2.70  -23.19    2.71    0.04275     1.57  LEFT      9.45644E-01  -142.45    4.80160E-02   -85.03
   60.00     2.00       4.56  -23.72    4.57    0.03014     1.38  LEFT      1.17156E+00  -136.43    4.51468E-02   -84.93
   62.00     2.00       6.13  -24.31    6.13    0.02175     1.19  LEFT      1.40295E+00  -131.23    4.21847E-02   -84.89
   64.00     2.00       7.46  -24.96    7.46    0.01594     1.02  LEFT      1.63549E+00  -126.64    3.91571E-02   -84.89
   66.00     2.00       8.60  -25.67    8.60    0.01180     0.88  LEFT      1.86519E+00  -122.56    3.60891E-02   -84.96
   68.00     2.00       9.58  -26.44    9.58    0.00880     0.75  LEFT      2.08837E+00  -118.90    3.30018E-02   -85.07
   70.00     2.00      10.43  -27.30   10.43    0.00658     0.64  LEFT      2.30172E+00  -115.64    2.99119E-02   -85.23
   72.00     2.00      11.15  -28.24   11.15    0.00492     0.55  LEFT      2.50231E+00  -112.73    2.68318E-02   -85.43
   74.00     2.00      11.77  -29.29   11.77    0.00367     0.46  LEFT      2.68760E+00  -110.17    2.37698E-02   -85.65
   76.00     2.00      12.30  -30.48   12.30    0.00272     0.39  LEFT      2.85544E+00  -107.93    2.07303E-02   -85.89
   78.00     2.00      12.74  -31.85   12.74    0.00200     0.32  LEFT      3.00403E+00  -106.00    1.77149E-02   -86.14
   80.00     2.00      13.10  -33.45   13.10    0.00145     0.26  LEFT      3.13194E+00  -104.39    1.47229E-02   -86.37
   82.00     2.00      13.39  -35.41   13.39    0.00103     0.20  LEFT      3.23799E+00  -103.07    1.17518E-02   -86.57
   84.00     2.00      13.61  -37.93   13.61    0.00070     0.15  LEFT      3.32132E+00  -102.05    8.79811E-03   -86.74
   86.00     2.00      13.77  -41.46   13.77    0.00043     0.10  LEFT      3.38128E+00  -101.32    5.85787E-03   -86.87
   88.00     2.00      13.86  -47.49   13.86    0.00021     0.05  LEFT      3.41743E+00  -100.89    2.92666E-03   -86.95
   90.00     2.00      13.89 -164.36   13.89    0.00000     0.00  LINEAR    3.42950E+00  -100.74    4.19327E-09    24.14
   92.00     2.00      13.86  -47.49   13.86    0.00021    -0.05  RIGHT     3.41743E+00  -100.89    2.92667E-03    93.04
   94.00     2.00      13.77  -41.46   13.77    0.00043    -0.10  RIGHT     3.38128E+00  -101.32    5.85787E-03    93.13
   96.00     2.00      13.61  -37.93   13.61    0.00070    -0.15  RIGHT     3.32132E+00  -102.05    8.79811E-03    93.26
   98.00     2.00      13.39  -35.41   13.39    0.00103    -0.20  RIGHT     3.23799E+00  -103.07    1.17518E-02    93.43
  100.00     2.00      13.10  -33.45   13.10    0.00145    -0.26  RIGHT     3.13194E+00  -104.39    1.47229E-02    93.63
  102.00     2.00      12.74  -31.85   12.74    0.00200    -0.32  RIGHT     3.00403E+00  -106.00    1.77150E-02    93.86
  104.00     2.00      12.30  -30.48   12.30    0.00272    -0.39  RIGHT     2.85544E+00  -107.93    2.07303E-02    94.11
  106.00     2.00      11.77  -29.29   11.77    0.00367    -0.46  RIGHT     2.68760E+00  -110.17    2.37698E-02    94.35
  108.00     2.00      11.15  -28.24   11.15    0.00492    -0.55  RIGHT     2.50231E+00  -112.73    2.68318E-02    94.57
  110.00     2.00      10.43  -27.30   10.43    0.00658    -0.64  RIGHT     2.30172E+00  -115.64    2.99119E-02    94.77
  112.00     2.00       9.58  -26.44    9.58    0.00880    -0.75  RIGHT     2.08837E+00  -118.90    3.30018E-02    94.93
  114.00     2.00       8.60  -25.67    8.60    0.01180    -0.88  RIGHT     1.86519E+00  -122.56    3.60891E-02    95.04
  116.00     2.00       7.46  -24.96    7.46    0.01594    -1.02  RIGHT     1.63549E+00  -126.64    3.91571E-02    95.11
  118.00     2.00       6.13  -24.31    6.13    0.02175    -1.19  RIGHT     1.40295E+00  -131.23    4.21847E-02    95.11
  120.00     2.00       4.56  -23.72    4.57    0.03014    -1.38  RIGHT     1.17156E+00  -136.43    4.51468E-02    95.07
  122.00     2.00       2.70  -23.19    2.71    0.04275    -1.57  RIGHT     9.45644E-01  -142.45    4.80160E-02    94.97
  124.00     2.00       0.45  -22.70    0.47    0.06273    -1.72  RIGHT     7.29799E-01  -149.66    5.07632E-02    94.85
  126.00     2.00      -2.34  -22.27   -2.30    0.09666    -1.65  RIGHT     5.29168E-01  -158.90    5.33606E-02    94.70
  128.00     2.00      -5.92  -21.88   -5.81    0.15894    -0.50  RIGHT     3.50447E-01  -172.37    5.57834E-02    94.55
  130.00     2.00     -10.50  -21.54  -10.17    0.25841     6.22  RIGHT     2.06918E-01   163.16    5.80126E-02    94.42
  132.00     2.00     -13.95  -21.24  -13.21    0.11686    22.60  RIGHT     1.39051E-01   112.81    6.00375E-02    94.34
  134.00     2.00     -11.84  -20.98  -11.34    0.15965    17.27  LEFT      1.77200E-01    64.30    6.18577E-02    94.32
  136.00     2.00      -9.04  -20.76   -8.75    0.20494     9.04  LEFT      2.44814E-01    40.34    6.34844E-02    94.38
  138.00     2.00      -7.29  -20.56   -7.09    0.20070     4.72  LEFT      2.99304E-01    25.95    6.49404E-02    94.54
  140.00     2.00      -6.40  -20.39   -6.23    0.19651     2.09  LEFT      3.31534E-01    14.91    6.62582E-02    94.81
  142.00     2.00      -6.18  -20.23   -6.01    0.19828     0.00  LEFT      3.40320E-01     5.18    6.74772E-02    95.18
  144.00     2.00      -6.52  -20.08   -6.33    0.20649    -2.12  LEFT      3.27204E-01    -4.09    6.86386E-02    95.63
  146.00     2.00      -7.41  -19.94   -7.17    0.22131    -4.75  LEFT      2.95213E-01   -13.39    6.97794E-02    96.15
  148.00     2.00      -8.91  -19.80   -8.57    0.24242    -8.60  LEFT      2.48377E-01   -23.17    7.09265E-02    96.69
[...]
   38.00   180.00     -10.00  -19.83   -9.57    0.18425   -14.85  LEFT      2.18990E-01   -46.51    7.06384E-02    95.90
   40.00   180.00      -8.13  -20.00   -7.86    0.08378   -13.54  LEFT      2.71607E-01   -63.97    6.92479E-02    95.70
   42.00   180.00      -6.56  -20.20   -6.37    0.02514   -11.67  LEFT      3.25691E-01   -77.27    6.77418E-02    95.49
   44.00   180.00      -5.32  -20.41   -5.19    0.00969    -9.98  RIGHT     3.75348E-01   -87.96    6.61171E-02    95.29
   46.00   180.00      -4.42  -20.64   -4.32    0.03148    -8.60  RIGHT     4.16556E-01   -96.93    6.43718E-02    95.10
   48.00   180.00      -3.82  -20.89   -3.73    0.04607    -7.53  RIGHT     4.46539E-01  -104.66    6.25047E-02    94.91
   50.00   180.00      -3.49  -21.18   -3.42    0.05675    -6.71  RIGHT     4.63500E-01  -111.42    6.05157E-02    94.72
   52.00   180.00      -3.44  -21.48   -3.37    0.06543    -6.09  RIGHT     4.66481E-01  -117.36    5.84050E-02    94.55
   54.00   180.00      -3.65  -21.82   -3.58    0.07337    -5.67  RIGHT     4.55284E-01  -122.52    5.61738E-02    94.38
   56.00   180.00      -4.14  -22.19   -4.07    0.08150    -5.42  RIGHT     4.30395E-01  -126.88    5.38237E-02    94.23
   58.00   180.00      -4.93  -22.60   -4.85    0.09068    -5.38  RIGHT     3.92920E-01  -130.34    5.13572E-02    94.08
   60.00   180.00      -6.07  -23.05   -5.98    0.10184    -5.62  RIGHT     3.44545E-01  -132.63    4.87769E-02    93.94
   62.00   180.00      -7.64  -23.54   -7.53    0.11585    -6.32  RIGHT     2.87580E-01  -133.21    4.60863E-02    93.82
   64.00   180.00      -9.76  -24.09   -9.60    0.13225    -7.94  RIGHT     2.25285E-01  -130.84    4.32893E-02    93.70
   66.00   180.00     -12.56  -24.69  -12.30    0.13977   -11.55  RIGHT     1.63207E-01  -122.41    4.03903E-02    93.59
   68.00   180.00     -15.64  -25.36  -15.20    0.07063   -17.69  RIGHT     1.14471E-01  -100.28    3.73943E-02    93.50
   70.00   180.00     -16.15  -26.11  -15.73    0.12220   -16.37  LEFT      1.07917E-01   -61.95    3.43068E-02    93.41
   72.00   180.00     -13.31  -26.95  -13.12    0.16112    -7.49  LEFT      1.49732E-01   -34.68    3.11341E-02    93.33
   74.00   180.00     -10.35  -27.91  -10.27    0.11857    -3.38  LEFT      2.10520E-01   -22.81    2.78828E-02    93.26
   76.00   180.00      -8.05  -29.01   -8.02    0.08361    -1.84  LEFT      2.74168E-01   -17.68    2.45600E-02    93.20
   78.00   180.00      -6.32  -30.30   -6.30    0.05997    -1.16  LEFT      3.34666E-01   -15.37    2.11735E-02    93.14
   80.00   180.00      -5.01  -31.84   -5.00    0.04347    -0.78  LEFT      3.89077E-01   -14.36    1.77315E-02    93.10
   82.00   180.00      -4.03  -33.74   -4.03    0.03126    -0.55  LEFT      4.35580E-01   -13.96    1.42426E-02    93.06
   84.00   180.00      -3.32  -36.21   -3.32    0.02168    -0.38  LEFT      4.72911E-01   -13.86    1.07156E-02    93.03
   86.00   180.00      -2.83  -39.71   -2.83    0.01370    -0.24  LEFT      5.00177E-01   -13.88    7.15982E-03    93.01
   88.00   180.00      -2.55  -45.72   -2.55    0.00664    -0.12  LEFT      5.16771E-01   -13.92    3.58475E-03    93.00
   90.00   180.00      -2.45 -174.28   -2.45    0.00000     0.00  LINEAR    5.22341E-01   -13.94    1.33783E-09   -67.66
   92.00   180.00      -2.55  -45.72   -2.55    0.00664     0.12  RIGHT     5.16771E-01   -13.92    3.58476E-03   -87.00
   94.00   180.00      -2.83  -39.71   -2.83    0.01370     0.24  RIGHT     5.00177E-01   -13.88    7.15982E-03   -86.99
   96.00   180.00      -3.32  -36.21   -3.32    0.02168     0.38  RIGHT     4.72911E-01   -13.86    1.07156E-02   -86.97
   98.00   180.00      -4.03  -33.74   -4.03    0.03126     0.55  RIGHT     4.35580E-01   -13.96    1.42426E-02   -86.94
  100.00   180.00      -5.01  -31.84   -5.00    0.04347     0.78  RIGHT     3.89077E-01   -14.36    1.77315E-02   -86.90
  102.00   180.00      -6.32  -30.30   -6.30    0.05997     1.16  RIGHT     3.34666E-01   -15.37    2.11735E-02   -86.86
  104.00   180.00      -8.05  -29.01   -8.02    0.08361     1.84  RIGHT     2.74168E-01   -17.68    2.45600E-02   -86.80
  106.00   180.00     -10.35  -27.91  -10.27    0.11857     3.38  RIGHT     2.10520E-01   -22.81    2.78828E-02   -86.74
  108.00   180.00     -13.31  -26.95  -13.12    0.16112     7.49  RIGHT     1.49732E-01   -34.68    3.11341E-02   -86.67
  110.00   180.00     -16.15  -26.11  -15.73    0.12220    16.37  RIGHT     1.07917E-01   -61.95    3.43068E-02   -86.59
  112.00   180.00     -15.64  -25.36  -15.20    0.07063    17.69  LEFT      1.14471E-01  -100.28    3.73943E-02   -86.50
  114.00   180.00     -12.56  -24.69  -12.30    0.13977    11.55  LEFT      1.63207E-01  -122.41    4.03903E-02   -86.41
  116.00   180.00      -9.76  -24.09   -9.60    0.13225     7.94  LEFT      2.25285E-01  -130.84    4.32893E-02   -86.30
  118.00   180.00      -7.64  -23.54   -7.53    0.11585     6.32  LEFT      2.87580E-01  -133.21    4.60863E-02   -86.18
  120.00   180.00      -6.07  -23.05   -5.98    0.10184     5.62  LEFT      3.44545E-01  -132.63    4.87769E-02   -86.06
  122.00   180.00      -4.93  -22.60   -4.85    0.09068     5.38  LEFT      3.92920E-01  -130.34    5.13572E-02   -85.92
  124.00   180.00      -4.14  -22.19   -4.07    0.08150     5.42  LEFT      4.30395E-01  -126.88    5.38237E-02   -85.77
  126.00   180.00      -3.65  -21.82   -3.58    0.07337     5.67  LEFT      4.55284E-01  -122.52    5.61738E-02   -85.62
  128.00   180.00      -3.44  -21.48   -3.37    0.06543     6.09  LEFT      4.66481E-01  -117.36    5.84050E-02   -85.45
  130.00   180.00      -3.49  -21.18   -3.42    0.05675     6.71  LEFT      4.63500E-01  -111.42    6.05157E-02   -85.28
  132.00   180.00      -3.82  -20.89   -3.73    0.04607     7.53  LEFT      4.46539E-01  -104.66    6.25047E-02   -85.09
  134.00   180.00      -4.42  -20.64   -4.32    0.03148     8.60  LEFT      4.16556E-01   -96.93    6.43718E-02   -84.90
  136.00   180.00      -5.32  -20.41   -5.19    0.00969     9.98  LEFT      3.75348E-01   -87.96    6.61171E-02   -84.71
  138.00   180.00      -6.56  -20.20   -6.37    0.02514    11.67  RIGHT     3.25691E-01   -77.27    6.77418E-02   -84.51
  140.00   180.00      -8.13  -20.00   -7.86    0.08378    13.54  RIGHT     2.71607E-01   -63.97    6.92479E-02   -84.30
  142.00   180.00     -10.00  -19.83   -9.57    0.18425    14.85  RIGHT     2.18990E-01   -46.51    7.06384E-02   -84.10
  144.00   180.00     -11.87  -19.68  -11.20    0.34141    12.62  RIGHT     1.76679E-01   -22.77    7.19170E-02   -83.90
  146.00   180.00     -12.96  -19.54  -12.09    0.46871    -0.71  RIGHT     1.55881E-01     7.50    7.30882E-02   -83.69
  148.00   180.00     -12.65  -19.41  -11.82    0.36546   -15.75  RIGHT     1.61477E-01    38.28    7.41573E-02   -83.49
  150.00   180.00     -11.52  -19.30  -10.85    0.20102   -19.62  RIGHT     1.84027E-01    63.19    7.51297E-02   -83.30
  152.00   180.00     -10.37  -19.20   -9.83    0.08225   -19.42  RIGHT     2.10041E-01    82.10    7.60110E-02   -83.11
  154.00   180.00      -9.55  -19.10   -9.09    0.00046   -18.41  LEFT      2.30716E-01    97.17    7.68065E-02   -82.92
  156.00   180.00      -9.15  -19.02   -8.73    0.06446   -17.45  LEFT      2.41593E-01   110.02    7.75207E-02   -82.73
  158.00   180.00      -9.18  -18.95   -8.74    0.12179   -16.75  LEFT      2.40893E-01   121.59    7.81573E-02   -82.54
  160.00   180.00      -9.63  -18.89   -9.14    0.18143   -16.34  LEFT      2.28600E-01   132.43    7.87188E-02   -82.36
  162.00   180.00     -10.54  -18.84   -9.94    0.25222   -16.26  LEFT      2.05997E-01   142.89    7.92067E-02   -82.18
  164.00   180.00     -11.93  -18.79  -11.12    0.34623   -16.57  LEFT      1.75345E-01   153.22    7.96210E-02   -82.00
  166.00   180.00     -13.91  -18.76  -12.68    0.48445   -17.64  LEFT      1.39603E-01   163.66    7.99614E-02   -81.82
  168.00   180.00     -16.63  -18.73  -14.54    0.70858   -22.20  LEFT      1.02134E-01   174.55    8.02272E-02   -81.64
  170.00   180.00     -20.37  -18.71  -16.45    0.82331   -85.01  LEFT      6.64084E-02  -173.42    8.04178E-02   -81.47
  172.00   180.00     -25.75  -18.69  -17.91    0.42681    82.93  LEFT      3.57435E-02  -158.15    8.05336E-02   -81.32
  174.00   180.00     -34.25  -18.69  -18.57    0.12188    83.51  LEFT      1.34309E-02  -128.96    8.05759E-02   -81.18
  176.00   180.00     -40.64  -18.69  -18.66    0.05599    86.74  RIGHT     6.43310E-03   -36.37    8.05479E-02   -81.07
  178.00   180.00     -39.46  -18.70  -18.67    0.09168   -89.94  RIGHT     7.37641E-03     9.65    8.04540E-02   -80.98
  180.00   180.00    -999.99  -18.72  -18.72    0.00000    90.00  LINEAR    3.35366E-12  -165.89    8.03001E-02   -80.92
  182.00   180.00     -32.58  -18.74  -18.56    0.17223    83.82  LEFT      1.62880E-02  -139.81    8.00928E-02   -80.89
  184.00   180.00     -24.86  -18.77  -17.81    0.32723    69.31  LEFT      3.95958E-02  -128.84    7.98388E-02   -80.89
  186.00   180.00     -20.28  -18.80  -16.47    0.33512    51.10  LEFT      6.70917E-02  -118.61    7.95442E-02   -80.92
  188.00   180.00     -17.22  -18.84  -14.95    0.24230    39.04  LEFT      9.53803E-02  -108.74    7.92136E-02   -80.98
  190.00   180.00     -15.17  -18.88  -13.63    0.14400    32.59  LEFT      1.20834E-01   -99.02    7.88492E-02   -81.07
  192.00   180.00     -13.89  -18.92  -12.71    0.06066    29.15  LEFT      1.39933E-01   -89.32    7.84510E-02   -81.18
  194.00   180.00     -13.31  -18.97  -12.27    0.01313    27.53  RIGHT     1.49604E-01   -79.46    7.80163E-02   -81.30
  196.00   180.00     -13.44  -19.02  -12.38    0.08800    27.42  RIGHT     1.47531E-01   -69.19    7.75397E-02   -81.43
  198.00   180.00     -14.37  -19.08  -13.11    0.17972    29.07  RIGHT     1.32456E-01   -57.95    7.70143E-02   -81.57
  200.00   180.00     -16.43  -19.15  -14.57    0.31909    34.07  RIGHT     1.04556E-01   -44.28    7.64321E-02   -81.71
  202.00   180.00     -20.33  -19.22  -16.73    0.56188    52.04  RIGHT     6.67362E-02   -22.43    7.57847E-02   -81.86
  204.00   180.00     -25.42  -19.30  -18.35    0.39449   -73.09  RIGHT     3.71168E-02    38.76    7.50643E-02   -82.02
  206.00   180.00     -20.02  -19.40  -16.69    0.09435   -47.09  LEFT      6.91169E-02   108.62    7.42641E-02   -82.18
  208.00   180.00     -14.64  -19.50  -13.42    0.26434   -27.14  LEFT      1.28378E-01   132.64    7.33793E-02   -82.36
  210.00   180.00     -11.22  -19.62  -10.64    0.26910   -15.13  LEFT      1.90328E-01   146.48    7.24065E-02   -82.55
  212.00   180.00      -8.94  -19.75   -8.59    0.24455    -8.69  LEFT      2.47573E-01   157.39    7.13442E-02   -82.75
  214.00   180.00      -7.43  -19.89   -7.19    0.22245    -4.88  LEFT      2.94660E-01   167.13    7.01921E-02   -82.97
  216.00   180.00      -6.53  -20.04   -6.34    0.20720    -2.28  LEFT      3.26826E-01   176.41    6.89510E-02   -83.21
  218.00   180.00      -6.18  -20.21   -6.01    0.19884    -0.18  LEFT      3.40041E-01  -174.33    6.76219E-02   -83.47
  220.00   180.00      -6.41  -20.39   -6.24    0.19709     1.90  LEFT      3.31292E-01  -164.58    6.62060E-02   -83.74
  222.00   180.00      -7.30  -20.59   -7.10    0.20139     4.52  LEFT      2.99071E-01  -153.49    6.47036E-02   -84.03
  224.00   180.00      -9.04  -20.81   -8.76    0.20561     8.87  LEFT      2.44662E-01  -138.97    6.31143E-02   -84.32
  226.00   180.00     -11.83  -21.04  -11.34    0.15902    17.11  LEFT      1.77528E-01  -114.75    6.14370E-02   -84.63
  228.00   180.00     -13.83  -21.30  -13.11    0.11676    22.16  RIGHT     1.40963E-01   -66.21    5.96691E-02   -84.93
  230.00   180.00     -10.37  -21.57  -10.05    0.25367     6.11  RIGHT     2.10023E-01   -16.56    5.78076E-02   -85.23
  232.00   180.00      -5.83  -21.87   -5.73    0.15750    -0.53  RIGHT     3.53998E-01     7.73    5.58488E-02   -85.53
  234.00   180.00      -2.28  -22.20   -2.23    0.09640    -1.70  RIGHT     5.33163E-01    21.18    5.37889E-02   -85.81
  236.00   180.00       0.50  -22.56    0.53    0.06285    -1.80  RIGHT     7.34294E-01    30.43    5.16240E-02   -86.08
  238.00   180.00       2.75  -22.95    2.76    0.04301    -1.66  RIGHT     9.50672E-01    37.65    4.93510E-02   -86.33
  240.00   180.00       4.60  -23.38    4.61    0.03044    -1.48  RIGHT     1.17713E+00    43.67    4.69674E-02   -86.56
  242.00   180.00       6.17  -23.85    6.17    0.02205    -1.29  RIGHT     1.40905E+00    48.88    4.44718E-02   -86.77
  244.00   180.00       7.50  -24.38    7.50    0.01623    -1.13  RIGHT     1.64211E+00    53.48    4.18641E-02   -86.97
  246.00   180.00       8.63  -24.96    8.64    0.01207    -0.98  RIGHT     1.87229E+00    57.57    3.91456E-02   -87.14
  248.00   180.00       9.61  -25.61    9.62    0.00905    -0.85  RIGHT     2.09592E+00    61.23    3.63188E-02   -87.30
  250.00   180.00      10.46  -26.34   10.46    0.00680    -0.73  RIGHT     2.30968E+00    64.49    3.33876E-02   -87.43
  252.00   180.00      11.18  -27.17   11.18    0.00512    -0.63  RIGHT     2.51063E+00    67.40    3.03573E-02   -87.55
  254.00   180.00      11.80  -28.11   11.80    0.00384    -0.54  RIGHT     2.69623E+00    69.97    2.72345E-02   -87.66
  256.00   180.00      12.33  -29.20   12.33    0.00288    -0.45  RIGHT     2.86434E+00    72.21    2.40266E-02   -87.74
  258.00   180.00      12.77  -30.48   12.77    0.00213    -0.38  RIGHT     3.01317E+00    74.13    2.07422E-02   -87.82
  260.00   180.00      13.13  -32.01   13.13    0.00156    -0.30  RIGHT     3.14126E+00    75.75    1.73908E-02   -87.88
  262.00   180.00      13.42  -33.90   13.42    0.00111    -0.24  RIGHT     3.24747E+00    77.07    1.39825E-02   -87.92
  264.00   180.00      13.64  -36.37   13.64    0.00076    -0.18  RIGHT     3.33092E+00    78.09    1.05279E-02   -87.96
  266.00   180.00      13.79  -39.86   13.79    0.00047    -0.12  RIGHT     3.39095E+00    78.82    7.03826E-03   -87.99
  268.00   180.00      13.89  -45.87   13.89    0.00023    -0.06  RIGHT     3.42715E+00    79.25    3.52505E-03   -88.00
  270.00   180.00      13.92 -164.34   13.92    0.00000     0.00  LINEAR    3.43924E+00    79.40    4.20463E-09  -155.69
  272.00   180.00      13.89  -45.87   13.89    0.00023     0.06  LEFT      3.42715E+00    79.25    3.52505E-03    92.00
  274.00   180.00      13.79  -39.86   13.79    0.00047     0.12  LEFT      3.39095E+00    78.82    7.03826E-03    92.01
  276.00   180.00      13.64  -36.37   13.64    0.00076     0.18  LEFT      3.33092E+00    78.09    1.05279E-02    92.04
  278.00   180.00      13.42  -33.90   13.42    0.00111     0.24  LEFT      3.24747E+00    77.07    1.39825E-02    92.08
  280.00   180.00      13.13  -32.01   13.13    0.00156     0.30  LEFT      3.14126E+00    75.75    1.73908E-02    92.12
  282.00   180.00      12.77  -30.48   12.77    0.00213     0.38  LEFT      3.01317E+00    74.13    2.07422E-02    92.18
  284.00   180.00      12.33  -29.20   12.33    0.00288     0.45  LEFT      2.86434E+00    72.21    2.40266E-02    92.26
  286.00   180.00      11.80  -28.11   11.80    0.00384     0.54  LEFT      2.69623E+00    69.97    2.72345E-02    92.34
  288.00   180.00      11.18  -27.17   11.18    0.00512     0.63  LEFT      2.51063E+00    67.40    3.03573E-02    92.45
  290.00   180.00      10.46  -26.34   10.46    0.00680     0.73  LEFT      2.30968E+00    64.49    3.33876E-02    92.57
  292.00   180.00       9.61  -25.61    9.62    0.00905     0.85  LEFT      2.09592E+00    61.23    3.63188E-02    92.70
  294.00   180.00       8.63  -24.96    8.64    0.01207     0.98  LEFT      1.87229E+00    57.57    3.91456E-02    92.86
  296.00   180.00       7.50  -24.38    7.50    0.01623     1.13  LEFT      1.64211E+00    53.48    4.18641E-02    93.03
  298.00   180.00       6.17  -23.85    6.17    0.02205     1.29  LEFT      1.40905E+00    48.88    4.44718E-02    93.23
  300.00   180.00       4.60  -23.38    4.61    0.03044     1.48  LEFT      1.17713E+00    43.67    4.69674E-02    93.44
  302.00   180.00       2.75  -22.95    2.76    0.04301     1.66  LEFT      9.50672E-01    37.65    4.93510E-02    93.67
  304.00   180.00       0.50  -22.56    0.53    0.06285     1.80  LEFT      7.34294E-01    30.43    5.16240E-02    93.92
  306.00   180.00      -2.28  -22.20   -2.23    0.09640     1.70  LEFT      5.33163E-01    21.18    5.37889E-02    94.19
  308.00   180.00      -5.83  -21.87   -5.73    0.15750     0.53  LEFT      3.53998E-01     7.73    5.58488E-02    94.47
  310.00   180.00     -10.37  -21.57  -10.05    0.25367    -6.11  LEFT      2.10023E-01   -16.56    5.78076E-02    94.77
  312.00   180.00     -13.83  -21.30  -13.11    0.11676   -22.16  LEFT      1.40963E-01   -66.21    5.96691E-02    95.07
  314.00   180.00     -11.83  -21.04  -11.34    0.15902   -17.11  RIGHT     1.77528E-01  -114.75    6.14370E-02    95.37
  316.00   180.00      -9.04  -20.81   -8.76    0.20561    -8.87  RIGHT     2.44662E-01  -138.97    6.31143E-02    95.68
  318.00   180.00      -7.30  -20.59   -7.10    0.20139    -4.52  RIGHT     2.99071E-01  -153.49    6.47036E-02    95.97
  320.00   180.00      -6.41  -20.39   -6.24    0.19709    -1.90  RIGHT     3.31292E-01  -164.58    6.62060E-02    96.26
  322.00   180.00      -6.18  -20.21   -6.01    0.19884     0.18  RIGHT     3.40041E-01  -174.33    6.76219E-02    96.53
  324.00   180.00      -6.53  -20.04   -6.34    0.20720     2.28  RIGHT     3.26826E-01   176.41    6.89510E-02    96.79
  326.00   180.00      -7.43  -19.89   -7.19    0.22245     4.88  RIGHT     2.94660E-01   167.13    7.01921E-02    97.03
  328.00   180.00      -8.94  -19.75   -8.59    0.24455     8.69  RIGHT     2.47573E-01   157.39    7.13442E-02    97.25
  330.00   180.00     -11.22  -19.62  -10.64    0.26910    15.13  RIGHT     1.90328E-01   146.48    7.24065E-02    97.45
  332.00   180.00     -14.64  -19.50  -13.42    0.26434    27.14  RIGHT     1.28378E-01   132.64    7.33793E-02    97.64
  334.00   180.00     -20.02  -19.40  -16.69    0.09435    47.09  RIGHT     6.91169E-02   108.62    7.42641E-02    97.82
  336.00   180.00     -25.42  -19.30  -18.35    0.39449    73.09  LEFT      3.71168E-02    38.76    7.50643E-02    97.98
  338.00   180.00     -20.33  -19.22  -16.73    0.56188   -52.04  LEFT      6.67362E-02   -22.43    7.57847E-02    98.14
  340.00   180.00     -16.43  -19.15  -14.57    0.31909   -34.07  LEFT      1.04556E-01   -44.28    7.64321E-02    98.29
  342.00   180.00     -14.37  -19.08  -13.11    0.17972   -29.07  LEFT      1.32456E-01   -57.95    7.70143E-02    98.43
  344.00   180.00     -13.44  -19.02  -12.38    0.08800   -27.42  LEFT      1.47531E-01   -69.19    7.75397E-02    98.57
  346.00   180.00     -13.31  -18.97  -12.27    0.01313   -27.53  LEFT      1.49604E-01   -79.46    7.80163E-02    98.70
  348.00   180.00     -13.89  -18.92  -12.71    0.06066   -29.15  RIGHT     1.39933E-01   -89.32    7.84510E-02    98.82
  350.00   180.00     -15.17  -18.88  -13.63    0.14400   -32.59  RIGHT     1.20834E-01   -99.02    7.88492E-02    98.93
  352.00   180.00     -17.22  -18.84  -14.95    0.24230   -39.04  RIGHT     9.53803E-02  -108.74    7.92136E-02    99.02
  354.00   180.00     -20.28  -18.80  -16.47    0.33512   -51.10  RIGHT     6.70917E-02  -118.61    7.95442E-02    99.08
  356.00   180.00     -24.86  -18.77  -17.81    0.32723   -69.31  RIGHT     3.95958E-02  -128.84    7.98388E-02    99.11
  358.00   180.00     -32.58  -18.74  -18.56    0.17223   -83.82  RIGHT     1.62880E-02  -139.81    8.00928E-02    99.11
  360.00   180.00    -999.99  -18.72  -18.72    0.00000    90.00  LINEAR    7.34309E-12    33.59    8.03001E-02    99.08






 ***** DATA CARD NO.  4   EN   0     0     0     0  0.00000E+00  0.00000E+00  0.00000E+00  0.00000E+00  0.00000E+00  0.00000E+00

 RUN TIME =     1.594
