1



                                ***********************************************
                                *                                             *
                                *  NUMERICAL ELECTROMAGNETICS CODE (NEC-4.1)  *
                                *                                             *
                                ***********************************************




                      **********************************************************

                          Traveling wave antenna                                                       

                      **********************************************************





                                 - - - STRUCTURE SPECIFICATION - - -

                                     COORDINATES MUST BE INPUT IN
                                     METERS OR BE SCALED TO METERS
                                     BEFORE STRUCTURE INPUT IS ENDED


  WIRE                                                                               NO. OF    FIRST  LAST     TAG
  NO.        X1         Y1         Z1          X2         Y2         Z2      RADIUS   SEG.     SEG.   SEG.     NO.
     1    0.00000    0.00000    0.00000     0.00000    0.00000  600.00000    0.00500     84        1    84       2

   TOTAL SEGMENTS USED=   84     NO. SEG. IN A SYMMETRIC CELL=   84     SYMMETRY FLAG=  0


         - MULTIPLE WIRE JUNCTIONS -
 JUNCTION    SEGMENTS  (- FOR END 1, + FOR END 2)
  NONE




                                 - - - - SEGMENTATION DATA - - - -

                                        COORDINATES IN METERS

                         I+ AND I- INDICATE THE SEGMENTS BEFORE AND AFTER I


  SEG.   COORDINATES OF SEG. CENTER     SEG.     ORIENTATION ANGLES    WIRE    CONNECTION DATA   TAG
  NO.       X         Y         Z       LENGTH     ALPHA     BETA      RADIUS    I-   I    I+    NO.
     1   0.00000   0.00000   3.57143   7.14286   90.00000   0.00000   0.00500     0    1    2      2
     2   0.00000   0.00000  10.71429   7.14286   90.00000   0.00000   0.00500     1    2    3      2
     3   0.00000   0.00000  17.85714   7.14286   90.00000   0.00000   0.00500     2    3    4      2
     4   0.00000   0.00000  25.00000   7.14286   90.00000   0.00000   0.00500     3    4    5      2
     5   0.00000   0.00000  32.14286   7.14286   90.00000   0.00000   0.00500     4    5    6      2
     6   0.00000   0.00000  39.28571   7.14286   90.00000   0.00000   0.00500     5    6    7      2
     7   0.00000   0.00000  46.42857   7.14286   90.00000   0.00000   0.00500     6    7    8      2
     8   0.00000   0.00000  53.57143   7.14286   90.00000   0.00000   0.00500     7    8    9      2
     9   0.00000   0.00000  60.71429   7.14286   90.00000   0.00000   0.00500     8    9   10      2
    10   0.00000   0.00000  67.85714   7.14286   90.00000   0.00000   0.00500     9   10   11      2
    11   0.00000   0.00000  75.00000   7.14286   90.00000   0.00000   0.00500    10   11   12      2
    12   0.00000   0.00000  82.14286   7.14286   90.00000   0.00000   0.00500    11   12   13      2
    13   0.00000   0.00000  89.28571   7.14286   90.00000   0.00000   0.00500    12   13   14      2
    14   0.00000   0.00000  96.42857   7.14286   90.00000   0.00000   0.00500    13   14   15      2
    15   0.00000   0.00000 103.57143   7.14286   90.00000   0.00000   0.00500    14   15   16      2
    16   0.00000   0.00000 110.71429   7.14286   90.00000   0.00000   0.00500    15   16   17      2
    17   0.00000   0.00000 117.85714   7.14286   90.00000   0.00000   0.00500    16   17   18      2
    18   0.00000   0.00000 125.00000   7.14286   90.00000   0.00000   0.00500    17   18   19      2
    19   0.00000   0.00000 132.14286   7.14286   90.00000   0.00000   0.00500    18   19   20      2
    20   0.00000   0.00000 139.28571   7.14286   90.00000   0.00000   0.00500    19   20   21      2
    21   0.00000   0.00000 146.42857   7.14286   90.00000   0.00000   0.00500    20   21   22      2
    22   0.00000   0.00000 153.57143   7.14286   90.00000   0.00000   0.00500    21   22   23      2
    23   0.00000   0.00000 160.71429   7.14286   90.00000   0.00000   0.00500    22   23   24      2
    24   0.00000   0.00000 167.85714   7.14286   90.00000   0.00000   0.00500    23   24   25      2
    25   0.00000   0.00000 175.00000   7.14286   90.00000   0.00000   0.00500    24   25   26      2
    26   0.00000   0.00000 182.14286   7.14286   90.00000   0.00000   0.00500    25   26   27      2
    27   0.00000   0.00000 189.28571   7.14286   90.00000   0.00000   0.00500    26   27   28      2
    28   0.00000   0.00000 196.42857   7.14286   90.00000   0.00000   0.00500    27   28   29      2
    29   0.00000   0.00000 203.57143   7.14286   90.00000   0.00000   0.00500    28   29   30      2
    30   0.00000   0.00000 210.71429   7.14286   90.00000   0.00000   0.00500    29   30   31      2
    31   0.00000   0.00000 217.85714   7.14286   90.00000   0.00000   0.00500    30   31   32      2
    32   0.00000   0.00000 225.00000   7.14286   90.00000   0.00000   0.00500    31   32   33      2
    33   0.00000   0.00000 232.14286   7.14286   90.00000   0.00000   0.00500    32   33   34      2
    34   0.00000   0.00000 239.28571   7.14286   90.00000   0.00000   0.00500    33   34   35      2
    35   0.00000   0.00000 246.42857   7.14286   90.00000   0.00000   0.00500    34   35   36      2
    36   0.00000   0.00000 253.57143   7.14286   90.00000   0.00000   0.00500    35   36   37      2
    37   0.00000   0.00000 260.71429   7.14286   90.00000   0.00000   0.00500    36   37   38      2
    38   0.00000   0.00000 267.85714   7.14286   90.00000   0.00000   0.00500    37   38   39      2
    39   0.00000   0.00000 275.00000   7.14286   90.00000   0.00000   0.00500    38   39   40      2
    40   0.00000   0.00000 282.14286   7.14286   90.00000   0.00000   0.00500    39   40   41      2
    41   0.00000   0.00000 289.28571   7.14286   90.00000   0.00000   0.00500    40   41   42      2
    42   0.00000   0.00000 296.42857   7.14286   90.00000   0.00000   0.00500    41   42   43      2
    43   0.00000   0.00000 303.57143   7.14286   90.00000   0.00000   0.00500    42   43   44      2
    44   0.00000   0.00000 310.71429   7.14286   90.00000   0.00000   0.00500    43   44   45      2
    45   0.00000   0.00000 317.85714   7.14286   90.00000   0.00000   0.00500    44   45   46      2
    46   0.00000   0.00000 325.00000   7.14286   90.00000   0.00000   0.00500    45   46   47      2
    47   0.00000   0.00000 332.14286   7.14286   90.00000   0.00000   0.00500    46   47   48      2
    48   0.00000   0.00000 339.28571   7.14286   90.00000   0.00000   0.00500    47   48   49      2
    49   0.00000   0.00000 346.42857   7.14286   90.00000   0.00000   0.00500    48   49   50      2
    50   0.00000   0.00000 353.57143   7.14286   90.00000   0.00000   0.00500    49   50   51      2
    51   0.00000   0.00000 360.71429   7.14286   90.00000   0.00000   0.00500    50   51   52      2
    52   0.00000   0.00000 367.85714   7.14286   90.00000   0.00000   0.00500    51   52   53      2
    53   0.00000   0.00000 375.00000   7.14286   90.00000   0.00000   0.00500    52   53   54      2
    54   0.00000   0.00000 382.14286   7.14286   90.00000   0.00000   0.00500    53   54   55      2
    55   0.00000   0.00000 389.28571   7.14286   90.00000   0.00000   0.00500    54   55   56      2
    56   0.00000   0.00000 396.42857   7.14286   90.00000   0.00000   0.00500    55   56   57      2
    57   0.00000   0.00000 403.57143   7.14286   90.00000   0.00000   0.00500    56   57   58      2
    58   0.00000   0.00000 410.71429   7.14286   90.00000   0.00000   0.00500    57   58   59      2
    59   0.00000   0.00000 417.85714   7.14286   90.00000   0.00000   0.00500    58   59   60      2
    60   0.00000   0.00000 425.00000   7.14286   90.00000   0.00000   0.00500    59   60   61      2
    61   0.00000   0.00000 432.14286   7.14286   90.00000   0.00000   0.00500    60   61   62      2
    62   0.00000   0.00000 439.28571   7.14286   90.00000   0.00000   0.00500    61   62   63      2
    63   0.00000   0.00000 446.42857   7.14286   90.00000   0.00000   0.00500    62   63   64      2
    64   0.00000   0.00000 453.57143   7.14286   90.00000   0.00000   0.00500    63   64   65      2
    65   0.00000   0.00000 460.71429   7.14286   90.00000   0.00000   0.00500    64   65   66      2
    66   0.00000   0.00000 467.85714   7.14286   90.00000   0.00000   0.00500    65   66   67      2
    67   0.00000   0.00000 475.00000   7.14286   90.00000   0.00000   0.00500    66   67   68      2
    68   0.00000   0.00000 482.14286   7.14286   90.00000   0.00000   0.00500    67   68   69      2
    69   0.00000   0.00000 489.28571   7.14286   90.00000   0.00000   0.00500    68   69   70      2
    70   0.00000   0.00000 496.42857   7.14286   90.00000   0.00000   0.00500    69   70   71      2
    71   0.00000   0.00000 503.57143   7.14286   90.00000   0.00000   0.00500    70   71   72      2
    72   0.00000   0.00000 510.71429   7.14286   90.00000   0.00000   0.00500    71   72   73      2
    73   0.00000   0.00000 517.85714   7.14286   90.00000   0.00000   0.00500    72   73   74      2
    74   0.00000   0.00000 525.00000   7.14286   90.00000   0.00000   0.00500    73   74   75      2
    75   0.00000   0.00000 532.14286   7.14286   90.00000   0.00000   0.00500    74   75   76      2
    76   0.00000   0.00000 539.28571   7.14286   90.00000   0.00000   0.00500    75   76   77      2
    77   0.00000   0.00000 546.42857   7.14286   90.00000   0.00000   0.00500    76   77   78      2
    78   0.00000   0.00000 553.57143   7.14286   90.00000   0.00000   0.00500    77   78   79      2
    79   0.00000   0.00000 560.71429   7.14286   90.00000   0.00000   0.00500    78   79   80      2
    80   0.00000   0.00000 567.85714   7.14286   90.00000   0.00000   0.00500    79   80   81      2
    81   0.00000   0.00000 575.00000   7.14286   90.00000   0.00000   0.00500    80   81   82      2
    82   0.00000   0.00000 582.14286   7.14286   90.00000   0.00000   0.00500    81   82   83      2
    83   0.00000   0.00000 589.28571   7.14286   90.00000   0.00000   0.00500    82   83   84      2
    84   0.00000   0.00000 596.42857   7.14286   90.00000   0.00000   0.00500    83   84    0      2




 ***** INPUT LINE  1  EX   0    2    4    0  1.00000E+00  0.00000E+00  0.00000E+00  0.00000E+00  0.00000E+00  0.00000E+00
 ***** INPUT LINE  2  LD   0    2   81   81  4.00000E+02  0.00000E+00  0.00000E+00  0.00000E+00  0.00000E+00  0.00000E+00
 ***** INPUT LINE  3  FR   0    1    0    0  3.00000E+00  0.00000E+00  0.00000E+00  0.00000E+00  0.00000E+00  0.00000E+00
 ***** INPUT LINE  4  RP   0  181   55 1000  0.00000E+00  0.00000E+00  1.00000E+00  5.00000E+00  0.00000E+00  0.00000E+00




                                 - - - - - - FREQUENCY - - - - - -

                                    FREQUENCY= 3.0000E+00 MHZ
                                    WAVELENGTH= 9.9933E+01 METERS



                                  - - - ANTENNA ENVIRONMENT - - -

                                            FREE SPACE



                               - - - STRUCTURE IMPEDANCE LOADING - - -


       LOCATION          RESISTANCE   INDUCTANCE  CAPACITANCE       IMPEDANCE (OHMS)     CONDUCTIVITY    TYPE
    ITAG FROM THRU          OHMS        HENRYS       FARADS        REAL      IMAGINARY    MHOS/METER

       2   81   81      4.0000E+02                                                                     SERIES 



                                - - - MATRIX TIMING - - -

                        FILL=    0.160 SEC.,  FACTOR=    0.060 SEC.



                                          - - - ANTENNA INPUT PARAMETERS - - -

   TAG   SEG.    VOLTAGE (VOLTS)         CURRENT (AMPS)         IMPEDANCE (OHMS)        ADMITTANCE (MHOS)      POWER
   NO.   NO.    REAL        IMAG.       REAL        IMAG.       REAL        IMAG.       REAL        IMAG.     (WATTS)
     2     4 1.00000E+00 0.00000E+00 2.18578E-03-2.02701E-04 4.53601E+02 4.20653E+01 2.18578E-03-2.02701E-04 1.09289E-03



                             - - - CURRENTS AND LOCATION - - -

                     LENGTHS NORMALIZED BY WAVELENGTH (OR 2.*PI/CABS(K))

  SEG.  TAG    COORD. OF SEG. CENTER     SEG.            - - - CURRENT (AMPS) - - -
  NO.   NO.     X        Y        Z      LENGTH     REAL        IMAG.       MAG.        PHASE
     1    2   0.0000   0.0000   0.0357  0.07148   5.3134E-04 -7.4264E-05  5.3650E-04   -7.957
     2    2   0.0000   0.0000   0.1072  0.07148   1.4097E-03 -1.6907E-04  1.4198E-03   -6.839
     3    2   0.0000   0.0000   0.1787  0.07148   1.9887E-03 -1.7672E-04  1.9965E-03   -5.078
     4    2   0.0000   0.0000   0.2502  0.07148   2.1858E-03 -2.0270E-04  2.1952E-03   -5.298
     5    2   0.0000   0.0000   0.3216  0.07148   1.9722E-03 -9.1920E-04  2.1759E-03  -24.990
     6    2   0.0000   0.0000   0.3931  0.07148   1.3942E-03 -1.5172E-03  2.0605E-03  -47.420
     7    2   0.0000   0.0000   0.4646  0.07148   5.6625E-04 -1.7837E-03  1.8714E-03  -72.387
     8    2   0.0000   0.0000   0.5361  0.07148  -3.5041E-04 -1.6876E-03  1.7236E-03 -101.730
     9    2   0.0000   0.0000   0.6075  0.07148  -1.1790E-03 -1.2591E-03  1.7249E-03 -133.119
    10    2   0.0000   0.0000   0.6790  0.07148  -1.7613E-03 -5.8898E-04  1.8571E-03 -161.510
    11    2   0.0000   0.0000   0.7505  0.07148  -1.9879E-03  1.8708E-04  1.9967E-03  174.624
    12    2   0.0000   0.0000   0.8220  0.07148  -1.8195E-03  9.1519E-04  2.0367E-03  153.297
    13    2   0.0000   0.0000   0.8935  0.07148  -1.2936E-03  1.4529E-03  1.9453E-03  131.682
    14    2   0.0000   0.0000   0.9649  0.07148  -5.1748E-04  1.6966E-03  1.7737E-03  106.963
    15    2   0.0000   0.0000   1.0364  0.07148   3.5409E-04  1.6015E-03  1.6402E-03   77.533
    16    2   0.0000   0.0000   1.1079  0.07148   1.1487E-03  1.1898E-03  1.6538E-03   46.008
    17    2   0.0000   0.0000   1.1794  0.07148   1.7104E-03  5.4578E-04  1.7953E-03   17.698
    18    2   0.0000   0.0000   1.2508  0.07148   1.9301E-03 -2.0137E-04  1.9406E-03   -5.956
    19    2   0.0000   0.0000   1.3223  0.07148   1.7668E-03 -9.0310E-04  1.9842E-03  -27.074
    20    2   0.0000   0.0000   1.3938  0.07148   1.2551E-03 -1.4209E-03  1.8959E-03  -48.547
    21    2   0.0000   0.0000   1.4653  0.07148   4.9796E-04 -1.6537E-03  1.7271E-03  -73.242
    22    2   0.0000   0.0000   1.5367  0.07148  -3.5368E-04 -1.5572E-03  1.5968E-03 -102.797
    23    2   0.0000   0.0000   1.6082  0.07148  -1.1311E-03 -1.1525E-03  1.6148E-03 -134.465
    24    2   0.0000   0.0000   1.6797  0.07148  -1.6811E-03 -5.2146E-04  1.7602E-03 -162.767
    25    2   0.0000   0.0000   1.7512  0.07148  -1.8960E-03  2.0962E-04  1.9076E-03  173.691
    26    2   0.0000   0.0000   1.8226  0.07148  -1.7348E-03  8.9547E-04  1.9523E-03  152.699
    27    2   0.0000   0.0000   1.8941  0.07148  -1.2310E-03  1.4005E-03  1.8646E-03  131.314
    28    2   0.0000   0.0000   1.9656  0.07148  -4.8540E-04  1.6255E-03  1.6964E-03  106.627
    29    2   0.0000   0.0000   2.0371  0.07148   3.5348E-04  1.5271E-03  1.5675E-03   76.968
    30    2   0.0000   0.0000   2.1085  0.07148   1.1194E-03  1.1264E-03  1.5880E-03   45.178
    31    2   0.0000   0.0000   2.1800  0.07148   1.6611E-03  5.0390E-04  1.7359E-03   16.875
    32    2   0.0000   0.0000   2.2515  0.07148   1.8723E-03 -2.1606E-04  1.8847E-03   -6.583
    33    2   0.0000   0.0000   2.3230  0.07148   1.7121E-03 -8.9043E-04  1.9298E-03  -27.479
    34    2   0.0000   0.0000   2.3945  0.07148   1.2134E-03 -1.3857E-03  1.8419E-03  -48.793
    35    2   0.0000   0.0000   2.4659  0.07148   4.7597E-04 -1.6045E-03  1.6736E-03  -73.477
    36    2   0.0000   0.0000   2.5374  0.07148  -3.5362E-04 -1.5042E-03  1.5452E-03 -103.229
    37    2   0.0000   0.0000   2.6089  0.07148  -1.1109E-03 -1.1060E-03  1.5676E-03 -135.127
    38    2   0.0000   0.0000   2.6804  0.07148  -1.6462E-03 -4.8971E-04  1.7175E-03 -163.434
    39    2   0.0000   0.0000   2.7518  0.07148  -1.8542E-03  2.2176E-04  1.8674E-03  173.180
    40    2   0.0000   0.0000   2.8233  0.07148  -1.6945E-03  8.8706E-04  1.9126E-03  152.368
    41    2   0.0000   0.0000   2.8948  0.07148  -1.1996E-03  1.3744E-03  1.8243E-03  131.115
    42    2   0.0000   0.0000   2.9663  0.07148  -4.6836E-04  1.5878E-03  1.6554E-03  106.435
    43    2   0.0000   0.0000   3.0377  0.07148   3.5400E-04  1.4856E-03  1.5272E-03   76.597
    44    2   0.0000   0.0000   3.1092  0.07148   1.1044E-03  1.0890E-03  1.5510E-03   44.597
    45    2   0.0000   0.0000   3.1807  0.07148   1.6345E-03  4.7747E-04  1.7028E-03   16.284
    46    2   0.0000   0.0000   3.2522  0.07148   1.8398E-03 -2.2715E-04  1.8538E-03   -7.038
    47    2   0.0000   0.0000   3.3236  0.07148   1.6803E-03 -8.8490E-04  1.8991E-03  -27.772
    48    2   0.0000   0.0000   3.3951  0.07148   1.1884E-03 -1.3655E-03  1.8102E-03  -48.967
    49    2   0.0000   0.0000   3.4666  0.07148   4.6201E-04 -1.5740E-03  1.6404E-03  -73.641
    50    2   0.0000   0.0000   3.5381  0.07148  -3.5446E-04 -1.4697E-03  1.5119E-03 -103.560
    51    2   0.0000   0.0000   3.6095  0.07148  -1.0992E-03 -1.0742E-03  1.5369E-03 -135.661
    52    2   0.0000   0.0000   3.6810  0.07148  -1.6250E-03 -4.6641E-04  1.6906E-03 -163.985
    53    2   0.0000   0.0000   3.7525  0.07148  -1.8279E-03  2.3249E-04  1.8427E-03  172.752
    54    2   0.0000   0.0000   3.8240  0.07148  -1.6685E-03  8.8373E-04  1.8881E-03  152.093
    55    2   0.0000   0.0000   3.8955  0.07148  -1.1790E-03  1.3582E-03  1.7985E-03  130.959
    56    2   0.0000   0.0000   3.9669  0.07148  -4.5670E-04  1.5622E-03  1.6276E-03  106.296
    57    2   0.0000   0.0000   4.0384  0.07148   3.5484E-04  1.4558E-03  1.4984E-03   76.302
    58    2   0.0000   0.0000   4.1099  0.07148   1.0948E-03  1.0608E-03  1.5244E-03   44.095
    59    2   0.0000   0.0000   4.1814  0.07148   1.6168E-03  4.5602E-04  1.6799E-03   15.751
    60    2   0.0000   0.0000   4.2528  0.07148   1.8178E-03 -2.3804E-04  1.8333E-03   -7.460
    61    2   0.0000   0.0000   4.3243  0.07148   1.6585E-03 -8.8356E-04  1.8792E-03  -28.046
    62    2   0.0000   0.0000   4.3958  0.07148   1.1711E-03 -1.3525E-03  1.7891E-03  -49.113
    63    2   0.0000   0.0000   4.4673  0.07148   4.5240E-04 -1.5522E-03  1.6168E-03  -73.751
    64    2   0.0000   0.0000   4.5387  0.07148  -3.5478E-04 -1.4435E-03  1.4865E-03 -103.808
    65    2   0.0000   0.0000   4.6102  0.07148  -1.0905E-03 -1.0484E-03  1.5128E-03 -136.128
    66    2   0.0000   0.0000   4.6817  0.07148  -1.6093E-03 -4.4588E-04  1.6699E-03 -164.514
    67    2   0.0000   0.0000   4.7532  0.07148  -1.8087E-03  2.4424E-04  1.8251E-03  172.309
    68    2   0.0000   0.0000   4.8246  0.07148  -1.6497E-03  8.8486E-04  1.8720E-03  151.792
    69    2   0.0000   0.0000   4.8961  0.07148  -1.1644E-03  1.3489E-03  1.7820E-03  130.802
    70    2   0.0000   0.0000   4.9676  0.07148  -4.4945E-04  1.5445E-03  1.6086E-03  106.225
    71    2   0.0000   0.0000   5.0391  0.07148   3.5331E-04  1.4331E-03  1.4760E-03   76.151
    72    2   0.0000   0.0000   5.1105  0.07148   1.0848E-03  1.0372E-03  1.5008E-03   43.715
    73    2   0.0000   0.0000   5.1820  0.07148   1.6002E-03  4.3542E-04  1.6584E-03   15.221
    74    2   0.0000   0.0000   5.2535  0.07148   1.7981E-03 -2.5265E-04  1.8158E-03   -7.998
    75    2   0.0000   0.0000   5.3250  0.07148   1.6401E-03 -8.9059E-04  1.8663E-03  -28.502
    76    2   0.0000   0.0000   5.3965  0.07148   1.1586E-03 -1.3519E-03  1.7805E-03  -49.403
    77    2   0.0000   0.0000   5.4679  0.07148   4.5039E-04 -1.5452E-03  1.6095E-03  -73.750
    78    2   0.0000   0.0000   5.5394  0.07148  -3.4254E-04 -1.4313E-03  1.4718E-03 -103.459
    79    2   0.0000   0.0000   5.6109  0.07148  -1.0608E-03 -1.0308E-03  1.4792E-03 -135.822
    80    2   0.0000   0.0000   5.6824  0.07148  -1.5587E-03 -4.1444E-04  1.6128E-03 -165.110
    81    2   0.0000   0.0000   5.7538  0.07148  -1.7437E-03  2.2183E-04  1.7577E-03  172.750
    82    2   0.0000   0.0000   5.8253  0.07148  -1.6349E-03  2.7835E-04  1.6584E-03  170.338
    83    2   0.0000   0.0000   5.8968  0.07148  -1.1868E-03  2.0744E-04  1.2048E-03  170.086
    84    2   0.0000   0.0000   5.9683  0.07148  -4.5501E-04  8.4339E-05  4.6276E-04  169.499



                                        - - - POWER BUDGET - - -

                                           INPUT POWER   = 1.0929E-03 WATTS
                                           RADIATED POWER= 4.7496E-04 WATTS
                                           WIRE LOSS     = 6.1794E-04 WATTS
                                           EFFICIENCY    =  43.46 PERCENT



                                                - - - RADIATION PATTERNS - - -

  - - ANGLES - -          - POWER GAINS -        - - - POLARIZATION - - -    - - - E(THETA) - - -    - - - E(PHI) - - -
  THETA     PHI        VERT.   HOR.    TOTAL      AXIAL     TILT   SENSE     MAGNITUDE    PHASE      MAGNITUDE    PHASE 
 DEGREES  DEGREES       DB      DB      DB        RATIO     DEG.               VOLTS     DEGREES       VOLTS     DEGREES
    0.00     0.00    -999.99 -999.99 -999.99    0.00000     0.00            0.00000E+00     0.00    0.00000E+00     0.00
    1.00     0.00     -17.76 -999.99  -17.76    0.00000     0.00  LINEAR    3.31157E-02   177.58    0.00000E+00     0.00
    2.00     0.00     -11.74 -999.99  -11.74    0.00000     0.00  LINEAR    6.62345E-02   177.10    0.00000E+00     0.00
    3.00     0.00      -8.22 -999.99   -8.22    0.00000     0.00  LINEAR    9.93540E-02   176.30    0.00000E+00     0.00
    4.00     0.00      -5.72 -999.99   -5.72    0.00000     0.00  LINEAR    1.32462E-01   175.17    0.00000E+00     0.00
    5.00     0.00      -3.79 -999.99   -3.79    0.00000     0.00  LINEAR    1.65530E-01   173.73    0.00000E+00     0.00
    6.00     0.00      -2.21 -999.99   -2.21    0.00000     0.00  LINEAR    1.98510E-01   171.96    0.00000E+00     0.00
    7.00     0.00      -0.88 -999.99   -0.88    0.00000     0.00  LINEAR    2.31328E-01   169.88    0.00000E+00     0.00
    8.00     0.00       0.26 -999.99    0.26    0.00000     0.00  LINEAR    2.63879E-01   167.48    0.00000E+00     0.00
    9.00     0.00       1.26 -999.99    1.26    0.00000     0.00  LINEAR    2.96024E-01   164.76    0.00000E+00     0.00
   10.00     0.00       2.14 -999.99    2.14    0.00000     0.00  LINEAR    3.27585E-01   161.73    0.00000E+00     0.00
   11.00     0.00       2.92 -999.99    2.92    0.00000     0.00  LINEAR    3.58340E-01   158.38    0.00000E+00     0.00
   12.00     0.00       3.61 -999.99    3.61    0.00000     0.00  LINEAR    3.88023E-01   154.71    0.00000E+00     0.00
   13.00     0.00       4.22 -999.99    4.22    0.00000     0.00  LINEAR    4.16319E-01   150.74    0.00000E+00     0.00
   14.00     0.00       4.76 -999.99    4.76    0.00000     0.00  LINEAR    4.42866E-01   146.45    0.00000E+00     0.00
   15.00     0.00       5.23 -999.99    5.23    0.00000     0.00  LINEAR    4.67254E-01   141.85    0.00000E+00     0.00
   16.00     0.00       5.62 -999.99    5.62    0.00000     0.00  LINEAR    4.89032E-01   136.95    0.00000E+00     0.00
   17.00     0.00       5.95 -999.99    5.95    0.00000     0.00  LINEAR    5.07705E-01   131.75    0.00000E+00     0.00
   18.00     0.00       6.20 -999.99    6.20    0.00000     0.00  LINEAR    5.22753E-01   126.25    0.00000E+00     0.00
   19.00     0.00       6.38 -999.99    6.38    0.00000     0.00  LINEAR    5.33630E-01   120.45    0.00000E+00     0.00
   20.00     0.00       6.48 -999.99    6.48    0.00000     0.00  LINEAR    5.39789E-01   114.35    0.00000E+00     0.00
   21.00     0.00       6.49 -999.99    6.49    0.00000     0.00  LINEAR    5.40692E-01   107.98    0.00000E+00     0.00
   22.00     0.00       6.42 -999.99    6.42    0.00000     0.00  LINEAR    5.35830E-01   101.32    0.00000E+00     0.00
   23.00     0.00       6.23 -999.99    6.23    0.00000     0.00  LINEAR    5.24754E-01    94.39    0.00000E+00     0.00
   24.00     0.00       5.94 -999.99    5.94    0.00000     0.00  LINEAR    5.07094E-01    87.20    0.00000E+00     0.00
   25.00     0.00       5.51 -999.99    5.51    0.00000     0.00  LINEAR    4.82591E-01    79.76    0.00000E+00     0.00
   26.00     0.00       4.92 -999.99    4.92    0.00000     0.00  LINEAR    4.51128E-01    72.10    0.00000E+00     0.00
   27.00     0.00       4.15 -999.99    4.15    0.00000     0.00  LINEAR    4.12759E-01    64.25    0.00000E+00     0.00
   28.00     0.00       3.15 -999.99    3.15    0.00000     0.00  LINEAR    3.67738E-01    56.25    0.00000E+00     0.00
   29.00     0.00       1.84 -999.99    1.84    0.00000     0.00  LINEAR    3.16552E-01    48.19    0.00000E+00     0.00
   30.00     0.00       0.13 -999.99    0.13    0.00000     0.00  LINEAR    2.59950E-01    40.25    0.00000E+00     0.00
   31.00     0.00      -2.19 -999.99   -2.19    0.00000     0.00  LINEAR    1.98985E-01    32.81    0.00000E+00     0.00
   32.00     0.00      -5.55 -999.99   -5.55    0.00000     0.00  LINEAR    1.35149E-01    27.02    0.00000E+00     0.00
   33.00     0.00     -11.12 -999.99  -11.12    0.00000     0.00  LINEAR    7.11972E-02    28.11    0.00000E+00     0.00
   34.00     0.00     -19.42 -999.99  -19.42    0.00000     0.00  LINEAR    2.73553E-02    87.69    0.00000E+00     0.00
   35.00     0.00     -11.06 -999.99  -11.06    0.00000     0.00  LINEAR    7.16143E-02   142.71    0.00000E+00     0.00
   36.00     0.00      -5.85 -999.99   -5.85    0.00000     0.00  LINEAR    1.30550E-01   142.52    0.00000E+00     0.00
   37.00     0.00      -2.80 -999.99   -2.80    0.00000     0.00  LINEAR    1.85437E-01   135.36    0.00000E+00     0.00
   38.00     0.00      -0.82 -999.99   -0.82    0.00000     0.00  LINEAR    2.33052E-01   126.14    0.00000E+00     0.00
   39.00     0.00       0.50 -999.99    0.50    0.00000     0.00  LINEAR    2.71248E-01   115.94    0.00000E+00     0.00
   40.00     0.00       1.33 -999.99    1.33    0.00000     0.00  LINEAR    2.98288E-01   105.16    0.00000E+00     0.00
   41.00     0.00       1.74 -999.99    1.74    0.00000     0.00  LINEAR    3.12834E-01    94.00    0.00000E+00     0.00
   42.00     0.00       1.77 -999.99    1.77    0.00000     0.00  LINEAR    3.14016E-01    82.55    0.00000E+00     0.00
   43.00     0.00       1.42 -999.99    1.42    0.00000     0.00  LINEAR    3.01521E-01    70.93    0.00000E+00     0.00
   44.00     0.00       0.64 -999.99    0.64    0.00000     0.00  LINEAR    2.75669E-01    59.26    0.00000E+00     0.00
   45.00     0.00      -0.65 -999.99   -0.65    0.00000     0.00  LINEAR    2.37469E-01    47.73    0.00000E+00     0.00
   46.00     0.00      -2.65 -999.99   -2.65    0.00000     0.00  LINEAR    1.88666E-01    36.79    0.00000E+00     0.00
   47.00     0.00      -5.76 -999.99   -5.76    0.00000     0.00  LINEAR    1.31857E-01    27.62    0.00000E+00     0.00
   48.00     0.00     -11.10 -999.99  -11.10    0.00000     0.00  LINEAR    7.13282E-02    25.65    0.00000E+00     0.00
   49.00     0.00     -18.92 -999.99  -18.92    0.00000     0.00  LINEAR    2.89775E-02    79.46    0.00000E+00     0.00
   50.00     0.00     -11.10 -999.99  -11.10    0.00000     0.00  LINEAR    7.13003E-02   130.63    0.00000E+00     0.00
   51.00     0.00      -6.02 -999.99   -6.02    0.00000     0.00  LINEAR    1.28040E-01   127.75    0.00000E+00     0.00
   52.00     0.00      -3.15 -999.99   -3.15    0.00000     0.00  LINEAR    1.78146E-01   117.58    0.00000E+00     0.00
   53.00     0.00      -1.43 -999.99   -1.43    0.00000     0.00  LINEAR    2.17085E-01   105.30    0.00000E+00     0.00
   54.00     0.00      -0.49 -999.99   -0.49    0.00000     0.00  LINEAR    2.42013E-01    92.13    0.00000E+00     0.00
   55.00     0.00      -0.17 -999.99   -0.17    0.00000     0.00  LINEAR    2.51126E-01    78.52    0.00000E+00     0.00
   56.00     0.00      -0.43 -999.99   -0.43    0.00000     0.00  LINEAR    2.43693E-01    64.73    0.00000E+00     0.00
   57.00     0.00      -1.31 -999.99   -1.31    0.00000     0.00  LINEAR    2.20144E-01    51.05    0.00000E+00     0.00
   58.00     0.00      -2.96 -999.99   -2.96    0.00000     0.00  LINEAR    1.82127E-01    37.92    0.00000E+00     0.00
   59.00     0.00      -5.71 -999.99   -5.71    0.00000     0.00  LINEAR    1.32578E-01    26.46    0.00000E+00     0.00
   60.00     0.00     -10.51 -999.99  -10.51    0.00000     0.00  LINEAR    7.63415E-02    21.27    0.00000E+00     0.00
   61.00     0.00     -18.38 -999.99  -18.38    0.00000     0.00  LINEAR    3.08568E-02    59.33    0.00000E+00     0.00
   62.00     0.00     -12.19 -999.99  -12.19    0.00000     0.00  LINEAR    6.29410E-02   118.64    0.00000E+00     0.00
   63.00     0.00      -6.85 -999.99   -6.85    0.00000     0.00  LINEAR    1.16301E-01   116.54    0.00000E+00     0.00
   64.00     0.00      -3.96 -999.99   -3.96    0.00000     0.00  LINEAR    1.62340E-01   105.21    0.00000E+00     0.00
   65.00     0.00      -2.34 -999.99   -2.34    0.00000     0.00  LINEAR    1.95440E-01    91.46    0.00000E+00     0.00
   66.00     0.00      -1.62 -999.99   -1.62    0.00000     0.00  LINEAR    2.12545E-01    76.80    0.00000E+00     0.00
   67.00     0.00      -1.63 -999.99   -1.63    0.00000     0.00  LINEAR    2.12185E-01    61.84    0.00000E+00     0.00
   68.00     0.00      -2.39 -999.99   -2.39    0.00000     0.00  LINEAR    1.94465E-01    47.00    0.00000E+00     0.00
   69.00     0.00      -4.02 -999.99   -4.02    0.00000     0.00  LINEAR    1.61097E-01    32.89    0.00000E+00     0.00
   70.00     0.00      -6.91 -999.99   -6.91    0.00000     0.00  LINEAR    1.15473E-01    21.04    0.00000E+00     0.00
   71.00     0.00     -12.09 -999.99  -12.09    0.00000     0.00  LINEAR    6.36277E-02    18.05    0.00000E+00     0.00
   72.00     0.00     -18.32 -999.99  -18.32    0.00000     0.00  LINEAR    3.10587E-02    69.43    0.00000E+00     0.00
   73.00     0.00     -11.39 -999.99  -11.39    0.00000     0.00  LINEAR    6.89390E-02   109.24    0.00000E+00     0.00
   74.00     0.00      -6.80 -999.99   -6.80    0.00000     0.00  LINEAR    1.16940E-01   103.87    0.00000E+00     0.00
   75.00     0.00      -4.32 -999.99   -4.32    0.00000     0.00  LINEAR    1.55675E-01    91.21    0.00000E+00     0.00
   76.00     0.00      -3.05 -999.99   -3.05    0.00000     0.00  LINEAR    1.80142E-01    76.50    0.00000E+00     0.00
   77.00     0.00      -2.69 -999.99   -2.69    0.00000     0.00  LINEAR    1.87889E-01    61.11    0.00000E+00     0.00
   78.00     0.00      -3.14 -999.99   -3.14    0.00000     0.00  LINEAR    1.78338E-01    45.69    0.00000E+00     0.00
   79.00     0.00      -4.49 -999.99   -4.49    0.00000     0.00  LINEAR    1.52728E-01    30.93    0.00000E+00     0.00
   80.00     0.00      -7.02 -999.99   -7.02    0.00000     0.00  LINEAR    1.14125E-01    18.22    0.00000E+00     0.00
   81.00     0.00     -11.51 -999.99  -11.51    0.00000     0.00  LINEAR    6.80351E-02    12.73    0.00000E+00     0.00
   82.00     0.00     -18.05 -999.99  -18.05    0.00000     0.00  LINEAR    3.20461E-02    46.81    0.00000E+00     0.00
   83.00     0.00     -13.10 -999.99  -13.10    0.00000     0.00  LINEAR    5.66453E-02    97.31    0.00000E+00     0.00
   84.00     0.00      -8.18 -999.99   -8.18    0.00000     0.00  LINEAR    9.97659E-02    95.61    0.00000E+00     0.00
   85.00     0.00      -5.52 -999.99   -5.52    0.00000     0.00  LINEAR    1.35533E-01    83.73    0.00000E+00     0.00
   86.00     0.00      -4.18 -999.99   -4.18    0.00000     0.00  LINEAR    1.58291E-01    69.21    0.00000E+00     0.00
   87.00     0.00      -3.78 -999.99   -3.78    0.00000     0.00  LINEAR    1.65596E-01    53.88    0.00000E+00     0.00
   88.00     0.00      -4.25 -999.99   -4.25    0.00000     0.00  LINEAR    1.56980E-01    38.57    0.00000E+00     0.00
   89.00     0.00      -5.64 -999.99   -5.64    0.00000     0.00  LINEAR    1.33789E-01    24.11    0.00000E+00     0.00
   90.00     0.00      -8.24 -999.99   -8.24    0.00000     0.00  LINEAR    9.91718E-02    12.21    0.00000E+00     0.00
   91.00     0.00     -12.76 -999.99  -12.76    0.00000     0.00  LINEAR    5.88905E-02     9.18    0.00000E+00     0.00
   92.00     0.00     -18.10 -999.99  -18.10    0.00000     0.00  LINEAR    3.18454E-02    46.77    0.00000E+00     0.00
   93.00     0.00     -13.28 -999.99  -13.28    0.00000     0.00  LINEAR    5.54597E-02    87.42    0.00000E+00     0.00
   94.00     0.00      -8.87 -999.99   -8.87    0.00000     0.00  LINEAR    9.21890E-02    85.40    0.00000E+00     0.00
   95.00     0.00      -6.43 -999.99   -6.43    0.00000     0.00  LINEAR    1.22122E-01    73.95    0.00000E+00     0.00
   96.00     0.00      -5.22 -999.99   -5.22    0.00000     0.00  LINEAR    1.40408E-01    59.92    0.00000E+00     0.00
   97.00     0.00      -4.93 -999.99   -4.93    0.00000     0.00  LINEAR    1.45142E-01    45.13    0.00000E+00     0.00
   98.00     0.00      -5.48 -999.99   -5.48    0.00000     0.00  LINEAR    1.36224E-01    30.51    0.00000E+00     0.00
   99.00     0.00      -6.94 -999.99   -6.94    0.00000     0.00  LINEAR    1.15149E-01    17.00    0.00000E+00     0.00
  100.00     0.00      -9.58 -999.99   -9.58    0.00000     0.00  LINEAR    8.50021E-02     6.62    0.00000E+00     0.00
  101.00     0.00     -13.94 -999.99  -13.94    0.00000     0.00  LINEAR    5.14463E-02     6.48    0.00000E+00     0.00
  102.00     0.00     -18.06 -999.99  -18.06    0.00000     0.00  LINEAR    3.20079E-02    43.01    0.00000E+00     0.00
  103.00     0.00     -13.91 -999.99  -13.91    0.00000     0.00  LINEAR    5.15977E-02    76.89    0.00000E+00     0.00
  104.00     0.00      -9.94 -999.99   -9.94    0.00000     0.00  LINEAR    8.15232E-02    76.00    0.00000E+00     0.00
  105.00     0.00      -7.64 -999.99   -7.64    0.00000     0.00  LINEAR    1.06187E-01    65.85    0.00000E+00     0.00
  106.00     0.00      -6.48 -999.99   -6.48    0.00000     0.00  LINEAR    1.21444E-01    52.98    0.00000E+00     0.00
  107.00     0.00      -6.17 -999.99   -6.17    0.00000     0.00  LINEAR    1.25782E-01    39.31    0.00000E+00     0.00
  108.00     0.00      -6.64 -999.99   -6.64    0.00000     0.00  LINEAR    1.19184E-01    25.80    0.00000E+00     0.00
  109.00     0.00      -7.92 -999.99   -7.92    0.00000     0.00  LINEAR    1.02886E-01    13.37    0.00000E+00     0.00
  110.00     0.00     -10.18 -999.99  -10.18    0.00000     0.00  LINEAR    7.93308E-02     3.76    0.00000E+00     0.00
  111.00     0.00     -13.73 -999.99  -13.73    0.00000     0.00  LINEAR    5.27096E-02     1.97    0.00000E+00     0.00
  112.00     0.00     -17.75 -999.99  -17.75    0.00000     0.00  LINEAR    3.31522E-02    24.08    0.00000E+00     0.00
  113.00     0.00     -16.12 -999.99  -16.12    0.00000     0.00  LINEAR    3.99988E-02    60.91    0.00000E+00     0.00
  114.00     0.00     -12.29 -999.99  -12.29    0.00000     0.00  LINEAR    6.21788E-02    68.13    0.00000E+00     0.00
  115.00     0.00      -9.75 -999.99   -9.75    0.00000     0.00  LINEAR    8.33105E-02    61.97    0.00000E+00     0.00
  116.00     0.00      -8.30 -999.99   -8.30    0.00000     0.00  LINEAR    9.84646E-02    51.61    0.00000E+00     0.00
  117.00     0.00      -7.67 -999.99   -7.67    0.00000     0.00  LINEAR    1.05908E-01    39.83    0.00000E+00     0.00
  118.00     0.00      -7.72 -999.99   -7.72    0.00000     0.00  LINEAR    1.05232E-01    27.80    0.00000E+00     0.00
  119.00     0.00      -8.43 -999.99   -8.43    0.00000     0.00  LINEAR    9.69638E-02    16.31    0.00000E+00     0.00
  120.00     0.00      -9.84 -999.99   -9.84    0.00000     0.00  LINEAR    8.24287E-02     6.36    0.00000E+00     0.00
  121.00     0.00     -12.07 -999.99  -12.07    0.00000     0.00  LINEAR    6.37757E-02    -0.11    0.00000E+00     0.00
  122.00     0.00     -15.18 -999.99  -15.18    0.00000     0.00  LINEAR    4.45699E-02     1.78    0.00000E+00     0.00
  123.00     0.00     -17.97 -999.99  -17.97    0.00000     0.00  LINEAR    3.23462E-02    22.08    0.00000E+00     0.00
  124.00     0.00     -16.83 -999.99  -16.83    0.00000     0.00  LINEAR    3.68603E-02    49.61    0.00000E+00     0.00
  125.00     0.00     -13.90 -999.99  -13.90    0.00000     0.00  LINEAR    5.16642E-02    58.14    0.00000E+00     0.00
  126.00     0.00     -11.66 -999.99  -11.66    0.00000     0.00  LINEAR    6.68999E-02    55.06    0.00000E+00     0.00
  127.00     0.00     -10.24 -999.99  -10.24    0.00000     0.00  LINEAR    7.87360E-02    47.50    0.00000E+00     0.00
  128.00     0.00      -9.50 -999.99   -9.50    0.00000     0.00  LINEAR    8.57494E-02    38.19    0.00000E+00     0.00
  129.00     0.00      -9.32 -999.99   -9.32    0.00000     0.00  LINEAR    8.75087E-02    28.36    0.00000E+00     0.00
  130.00     0.00      -9.66 -999.99   -9.66    0.00000     0.00  LINEAR    8.41926E-02    18.73    0.00000E+00     0.00
  131.00     0.00     -10.50 -999.99  -10.50    0.00000     0.00  LINEAR    7.64486E-02     9.96    0.00000E+00     0.00
  132.00     0.00     -11.86 -999.99  -11.86    0.00000     0.00  LINEAR    6.53363E-02     2.99    0.00000E+00     0.00
  133.00     0.00     -13.78 -999.99  -13.78    0.00000     0.00  LINEAR    5.23833E-02    -0.53    0.00000E+00     0.00
  134.00     0.00     -16.14 -999.99  -16.14    0.00000     0.00  LINEAR    3.99263E-02     2.68    0.00000E+00     0.00
  135.00     0.00     -18.09 -999.99  -18.09    0.00000     0.00  LINEAR    3.19008E-02    16.91    0.00000E+00     0.00
  136.00     0.00     -17.91 -999.99  -17.91    0.00000     0.00  LINEAR    3.25624E-02    36.86    0.00000E+00     0.00
  137.00     0.00     -16.05 -999.99  -16.05    0.00000     0.00  LINEAR    4.03359E-02    48.07    0.00000E+00     0.00
  138.00     0.00     -14.14 -999.99  -14.14    0.00000     0.00  LINEAR    5.02319E-02    49.73    0.00000E+00     0.00
  139.00     0.00     -12.71 -999.99  -12.71    0.00000     0.00  LINEAR    5.92546E-02    46.27    0.00000E+00     0.00
  140.00     0.00     -11.76 -999.99  -11.76    0.00000     0.00  LINEAR    6.60645E-02    40.37    0.00000E+00     0.00
  141.00     0.00     -11.25 -999.99  -11.25    0.00000     0.00  LINEAR    7.00911E-02    33.35    0.00000E+00     0.00
  142.00     0.00     -11.12 -999.99  -11.12    0.00000     0.00  LINEAR    7.11712E-02    25.94    0.00000E+00     0.00
  143.00     0.00     -11.34 -999.99  -11.34    0.00000     0.00  LINEAR    6.94044E-02    18.62    0.00000E+00     0.00
  144.00     0.00     -11.89 -999.99  -11.89    0.00000     0.00  LINEAR    6.50828E-02    11.81    0.00000E+00     0.00
  145.00     0.00     -12.80 -999.99  -12.80    0.00000     0.00  LINEAR    5.86552E-02     5.97    0.00000E+00     0.00
  146.00     0.00     -14.06 -999.99  -14.06    0.00000     0.00  LINEAR    5.07202E-02     1.82    0.00000E+00     0.00
  147.00     0.00     -15.68 -999.99  -15.68    0.00000     0.00  LINEAR    4.20752E-02     0.53    0.00000E+00     0.00
  148.00     0.00     -17.57 -999.99  -17.57    0.00000     0.00  LINEAR    3.38778E-02     4.13    0.00000E+00     0.00
  149.00     0.00     -19.24 -999.99  -19.24    0.00000     0.00  LINEAR    2.79501E-02    15.12    0.00000E+00     0.00
  150.00     0.00     -19.68 -999.99  -19.68    0.00000     0.00  LINEAR    2.65509E-02    32.17    0.00000E+00     0.00
  151.00     0.00     -18.56 -999.99  -18.56    0.00000     0.00  LINEAR    3.02124E-02    46.73    0.00000E+00     0.00
  152.00     0.00     -16.81 -999.99  -16.81    0.00000     0.00  LINEAR    3.69538E-02    53.96    0.00000E+00     0.00
  153.00     0.00     -15.15 -999.99  -15.15    0.00000     0.00  LINEAR    4.47378E-02    55.55    0.00000E+00     0.00
  154.00     0.00     -13.78 -999.99  -13.78    0.00000     0.00  LINEAR    5.24103E-02    53.88    0.00000E+00     0.00
  155.00     0.00     -12.69 -999.99  -12.69    0.00000     0.00  LINEAR    5.93849E-02    50.42    0.00000E+00     0.00
  156.00     0.00     -11.86 -999.99  -11.86    0.00000     0.00  LINEAR    6.53617E-02    45.96    0.00000E+00     0.00
  157.00     0.00     -11.24 -999.99  -11.24    0.00000     0.00  LINEAR    7.01954E-02    40.95    0.00000E+00     0.00
  158.00     0.00     -10.80 -999.99  -10.80    0.00000     0.00  LINEAR    7.38339E-02    35.68    0.00000E+00     0.00
  159.00     0.00     -10.52 -999.99  -10.52    0.00000     0.00  LINEAR    7.62863E-02    30.30    0.00000E+00     0.00
  160.00     0.00     -10.37 -999.99  -10.37    0.00000     0.00  LINEAR    7.76033E-02    24.92    0.00000E+00     0.00
  161.00     0.00     -10.34 -999.99  -10.34    0.00000     0.00  LINEAR    7.78636E-02    19.62    0.00000E+00     0.00
  162.00     0.00     -10.42 -999.99  -10.42    0.00000     0.00  LINEAR    7.71639E-02    14.44    0.00000E+00     0.00
  163.00     0.00     -10.59 -999.99  -10.59    0.00000     0.00  LINEAR    7.56112E-02     9.44    0.00000E+00     0.00
  164.00     0.00     -10.86 -999.99  -10.86    0.00000     0.00  LINEAR    7.33161E-02     4.63    0.00000E+00     0.00
  165.00     0.00     -11.21 -999.99  -11.21    0.00000     0.00  LINEAR    7.03884E-02     0.05    0.00000E+00     0.00
  166.00     0.00     -11.65 -999.99  -11.65    0.00000     0.00  LINEAR    6.69333E-02    -4.30    0.00000E+00     0.00
  167.00     0.00     -12.17 -999.99  -12.17    0.00000     0.00  LINEAR    6.30486E-02    -8.40    0.00000E+00     0.00
  168.00     0.00     -12.77 -999.99  -12.77    0.00000     0.00  LINEAR    5.88229E-02   -12.23    0.00000E+00     0.00
  169.00     0.00     -13.46 -999.99  -13.46    0.00000     0.00  LINEAR    5.43344E-02   -15.78    0.00000E+00     0.00
  170.00     0.00     -14.25 -999.99  -14.25    0.00000     0.00  LINEAR    4.96508E-02   -19.06    0.00000E+00     0.00
  171.00     0.00     -15.13 -999.99  -15.13    0.00000     0.00  LINEAR    4.48286E-02   -22.04    0.00000E+00     0.00
  172.00     0.00     -16.14 -999.99  -16.14    0.00000     0.00  LINEAR    3.99141E-02   -24.72    0.00000E+00     0.00
  173.00     0.00     -17.30 -999.99  -17.30    0.00000     0.00  LINEAR    3.49436E-02   -27.10    0.00000E+00     0.00
  174.00     0.00     -18.64 -999.99  -18.64    0.00000     0.00  LINEAR    2.99443E-02   -29.18    0.00000E+00     0.00
  175.00     0.00     -20.23 -999.99  -20.23    0.00000     0.00  LINEAR    2.49356E-02   -30.94    0.00000E+00     0.00
  176.00     0.00     -22.17 -999.99  -22.17    0.00000     0.00  LINEAR    1.99297E-02   -32.39    0.00000E+00     0.00
  177.00     0.00     -24.68 -999.99  -24.68    0.00000     0.00  LINEAR    1.49330E-02   -33.51    0.00000E+00     0.00
  178.00     0.00     -28.21 -999.99  -28.21    0.00000     0.00  LINEAR    9.94740E-03   -34.32    0.00000E+00     0.00
  179.00     0.00     -34.24 -999.99  -34.24    0.00000     0.00  LINEAR    4.97109E-03   -34.81    0.00000E+00     0.00
  180.00     0.00    -151.35 -999.99 -151.35    0.00000     0.00  LINEAR    6.93014E-09   -34.97    0.00000E+00     0.00
    0.00     5.00    -999.99 -999.99 -999.99    0.00000     0.00            0.00000E+00     0.00    0.00000E+00     0.00
    1.00     5.00     -17.76 -999.99  -17.76    0.00000     0.00  LINEAR    3.31157E-02   177.58    0.00000E+00     0.00
    2.00     5.00     -11.74 -999.99  -11.74    0.00000     0.00  LINEAR    6.62345E-02   177.10    0.00000E+00     0.00
    3.00     5.00      -8.22 -999.99   -8.22    0.00000     0.00  LINEAR    9.93540E-02   176.30    0.00000E+00     0.00
    4.00     5.00      -5.72 -999.99   -5.72    0.00000     0.00  LINEAR    1.32462E-01   175.17    0.00000E+00     0.00
    5.00     5.00      -3.79 -999.99   -3.79    0.00000     0.00  LINEAR    1.65530E-01   173.73    0.00000E+00     0.00
    6.00     5.00      -2.21 -999.99   -2.21    0.00000     0.00  LINEAR    1.98510E-01   171.96    0.00000E+00     0.00
    7.00     5.00      -0.88 -999.99   -0.88    0.00000     0.00  LINEAR    2.31328E-01   169.88    0.00000E+00     0.00
    8.00     5.00       0.26 -999.99    0.26    0.00000     0.00  LINEAR    2.63879E-01   167.48    0.00000E+00     0.00
    9.00     5.00       1.26 -999.99    1.26    0.00000     0.00  LINEAR    2.96024E-01   164.76    0.00000E+00     0.00
   10.00     5.00       2.14 -999.99    2.14    0.00000     0.00  LINEAR    3.27585E-01   161.73    0.00000E+00     0.00
   11.00     5.00       2.92 -999.99    2.92    0.00000     0.00  LINEAR    3.58340E-01   158.38    0.00000E+00     0.00
   12.00     5.00       3.61 -999.99    3.61    0.00000     0.00  LINEAR    3.88023E-01   154.71    0.00000E+00     0.00
   13.00     5.00       4.22 -999.99    4.22    0.00000     0.00  LINEAR    4.16319E-01   150.74    0.00000E+00     0.00
   14.00     5.00       4.76 -999.99    4.76    0.00000     0.00  LINEAR    4.42866E-01   146.45    0.00000E+00     0.00
   15.00     5.00       5.23 -999.99    5.23    0.00000     0.00  LINEAR    4.67254E-01   141.85    0.00000E+00     0.00
   16.00     5.00       5.62 -999.99    5.62    0.00000     0.00  LINEAR    4.89032E-01   136.95    0.00000E+00     0.00
   17.00     5.00       5.95 -999.99    5.95    0.00000     0.00  LINEAR    5.07705E-01   131.75    0.00000E+00     0.00
   18.00     5.00       6.20 -999.99    6.20    0.00000     0.00  LINEAR    5.22753E-01   126.25    0.00000E+00     0.00
   19.00     5.00       6.38 -999.99    6.38    0.00000     0.00  LINEAR    5.33630E-01   120.45    0.00000E+00     0.00
   20.00     5.00       6.48 -999.99    6.48    0.00000     0.00  LINEAR    5.39789E-01   114.35    0.00000E+00     0.00
   21.00     5.00       6.49 -999.99    6.49    0.00000     0.00  LINEAR    5.40692E-01   107.98    0.00000E+00     0.00
   22.00     5.00       6.42 -999.99    6.42    0.00000     0.00  LINEAR    5.35830E-01   101.32    0.00000E+00     0.00
   23.00     5.00       6.23 -999.99    6.23    0.00000     0.00  LINEAR    5.24754E-01    94.39    0.00000E+00     0.00
   24.00     5.00       5.94 -999.99    5.94    0.00000     0.00  LINEAR    5.07094E-01    87.20    0.00000E+00     0.00
   25.00     5.00       5.51 -999.99    5.51    0.00000     0.00  LINEAR    4.82591E-01    79.76    0.00000E+00     0.00
   26.00     5.00       4.92 -999.99    4.92    0.00000     0.00  LINEAR    4.51128E-01    72.10    0.00000E+00     0.00
   27.00     5.00       4.15 -999.99    4.15    0.00000     0.00  LINEAR    4.12759E-01    64.25    0.00000E+00     0.00
   28.00     5.00       3.15 -999.99    3.15    0.00000     0.00  LINEAR    3.67738E-01    56.25    0.00000E+00     0.00
   29.00     5.00       1.84 -999.99    1.84    0.00000     0.00  LINEAR    3.16552E-01    48.19    0.00000E+00     0.00
   30.00     5.00       0.13 -999.99    0.13    0.00000     0.00  LINEAR    2.59950E-01    40.25    0.00000E+00     0.00
   31.00     5.00      -2.19 -999.99   -2.19    0.00000     0.00  LINEAR    1.98985E-01    32.81    0.00000E+00     0.00
   32.00     5.00      -5.55 -999.99   -5.55    0.00000     0.00  LINEAR    1.35149E-01    27.02    0.00000E+00     0.00
   33.00     5.00     -11.12 -999.99  -11.12    0.00000     0.00  LINEAR    7.11972E-02    28.11    0.00000E+00     0.00
   34.00     5.00     -19.42 -999.99  -19.42    0.00000     0.00  LINEAR    2.73553E-02    87.69    0.00000E+00     0.00
   35.00     5.00     -11.06 -999.99  -11.06    0.00000     0.00  LINEAR    7.16143E-02   142.71    0.00000E+00     0.00
   36.00     5.00      -5.85 -999.99   -5.85    0.00000     0.00  LINEAR    1.30550E-01   142.52    0.00000E+00     0.00
   37.00     5.00      -2.80 -999.99   -2.80    0.00000     0.00  LINEAR    1.85437E-01   135.36    0.00000E+00     0.00
   38.00     5.00      -0.82 -999.99   -0.82    0.00000     0.00  LINEAR    2.33052E-01   126.14    0.00000E+00     0.00
   39.00     5.00       0.50 -999.99    0.50    0.00000     0.00  LINEAR    2.71248E-01   115.94    0.00000E+00     0.00
   40.00     5.00       1.33 -999.99    1.33    0.00000     0.00  LINEAR    2.98288E-01   105.16    0.00000E+00     0.00
   41.00     5.00       1.74 -999.99    1.74    0.00000     0.00  LINEAR    3.12834E-01    94.00    0.00000E+00     0.00
   42.00     5.00       1.77 -999.99    1.77    0.00000     0.00  LINEAR    3.14016E-01    82.55    0.00000E+00     0.00
   43.00     5.00       1.42 -999.99    1.42    0.00000     0.00  LINEAR    3.01521E-01    70.93    0.00000E+00     0.00
   44.00     5.00       0.64 -999.99    0.64    0.00000     0.00  LINEAR    2.75669E-01    59.26    0.00000E+00     0.00
   45.00     5.00      -0.65 -999.99   -0.65    0.00000     0.00  LINEAR    2.37469E-01    47.73    0.00000E+00     0.00
   46.00     5.00      -2.65 -999.99   -2.65    0.00000     0.00  LINEAR    1.88666E-01    36.79    0.00000E+00     0.00
   47.00     5.00      -5.76 -999.99   -5.76    0.00000     0.00  LINEAR    1.31857E-01    27.62    0.00000E+00     0.00
   48.00     5.00     -11.10 -999.99  -11.10    0.00000     0.00  LINEAR    7.13282E-02    25.65    0.00000E+00     0.00
   49.00     5.00     -18.92 -999.99  -18.92    0.00000     0.00  LINEAR    2.89775E-02    79.46    0.00000E+00     0.00
   50.00     5.00     -11.10 -999.99  -11.10    0.00000     0.00  LINEAR    7.13003E-02   130.63    0.00000E+00     0.00
   51.00     5.00      -6.02 -999.99   -6.02    0.00000     0.00  LINEAR    1.28040E-01   127.75    0.00000E+00     0.00
   52.00     5.00      -3.15 -999.99   -3.15    0.00000     0.00  LINEAR    1.78146E-01   117.58    0.00000E+00     0.00
   53.00     5.00      -1.43 -999.99   -1.43    0.00000     0.00  LINEAR    2.17085E-01   105.30    0.00000E+00     0.00
   54.00     5.00      -0.49 -999.99   -0.49    0.00000     0.00  LINEAR    2.42013E-01    92.13    0.00000E+00     0.00
   55.00     5.00      -0.17 -999.99   -0.17    0.00000     0.00  LINEAR    2.51126E-01    78.52    0.00000E+00     0.00
   56.00     5.00      -0.43 -999.99   -0.43    0.00000     0.00  LINEAR    2.43693E-01    64.73    0.00000E+00     0.00
   57.00     5.00      -1.31 -999.99   -1.31    0.00000     0.00  LINEAR    2.20144E-01    51.05    0.00000E+00     0.00
   58.00     5.00      -2.96 -999.99   -2.96    0.00000     0.00  LINEAR    1.82127E-01    37.92    0.00000E+00     0.00
   59.00     5.00      -5.71 -999.99   -5.71    0.00000     0.00  LINEAR    1.32578E-01    26.46    0.00000E+00     0.00
   60.00     5.00     -10.51 -999.99  -10.51    0.00000     0.00  LINEAR    7.63415E-02    21.27    0.00000E+00     0.00
   61.00     5.00     -18.38 -999.99  -18.38    0.00000     0.00  LINEAR    3.08568E-02    59.33    0.00000E+00     0.00
   62.00     5.00     -12.19 -999.99  -12.19    0.00000     0.00  LINEAR    6.29410E-02   118.64    0.00000E+00     0.00
   63.00     5.00      -6.85 -999.99   -6.85    0.00000     0.00  LINEAR    1.16301E-01   116.54    0.00000E+00     0.00
   64.00     5.00      -3.96 -999.99   -3.96    0.00000     0.00  LINEAR    1.62340E-01   105.21    0.00000E+00     0.00
   65.00     5.00      -2.34 -999.99   -2.34    0.00000     0.00  LINEAR    1.95440E-01    91.46    0.00000E+00     0.00
   66.00     5.00      -1.62 -999.99   -1.62    0.00000     0.00  LINEAR    2.12545E-01    76.80    0.00000E+00     0.00
   67.00     5.00      -1.63 -999.99   -1.63    0.00000     0.00  LINEAR    2.12185E-01    61.84    0.00000E+00     0.00
   68.00     5.00      -2.39 -999.99   -2.39    0.00000     0.00  LINEAR    1.94465E-01    47.00    0.00000E+00     0.00
   69.00     5.00      -4.02 -999.99   -4.02    0.00000     0.00  LINEAR    1.61097E-01    32.89    0.00000E+00     0.00
   70.00     5.00      -6.91 -999.99   -6.91    0.00000     0.00  LINEAR    1.15473E-01    21.04    0.00000E+00     0.00
   71.00     5.00     -12.09 -999.99  -12.09    0.00000     0.00  LINEAR    6.36277E-02    18.05    0.00000E+00     0.00
   72.00     5.00     -18.32 -999.99  -18.32    0.00000     0.00  LINEAR    3.10587E-02    69.43    0.00000E+00     0.00
   73.00     5.00     -11.39 -999.99  -11.39    0.00000     0.00  LINEAR    6.89390E-02   109.24    0.00000E+00     0.00
   74.00     5.00      -6.80 -999.99   -6.80    0.00000     0.00  LINEAR    1.16940E-01   103.87    0.00000E+00     0.00
   75.00     5.00      -4.32 -999.99   -4.32    0.00000     0.00  LINEAR    1.55675E-01    91.21    0.00000E+00     0.00
   76.00     5.00      -3.05 -999.99   -3.05    0.00000     0.00  LINEAR    1.80142E-01    76.50    0.00000E+00     0.00
   77.00     5.00      -2.69 -999.99   -2.69    0.00000     0.00  LINEAR    1.87889E-01    61.11    0.00000E+00     0.00
   78.00     5.00      -3.14 -999.99   -3.14    0.00000     0.00  LINEAR    1.78338E-01    45.69    0.00000E+00     0.00
   79.00     5.00      -4.49 -999.99   -4.49    0.00000     0.00  LINEAR    1.52728E-01    30.93    0.00000E+00     0.00
   80.00     5.00      -7.02 -999.99   -7.02    0.00000     0.00  LINEAR    1.14125E-01    18.22    0.00000E+00     0.00
   81.00     5.00     -11.51 -999.99  -11.51    0.00000     0.00  LINEAR    6.80351E-02    12.73    0.00000E+00     0.00
   82.00     5.00     -18.05 -999.99  -18.05    0.00000     0.00  LINEAR    3.20461E-02    46.81    0.00000E+00     0.00
   83.00     5.00     -13.10 -999.99  -13.10    0.00000     0.00  LINEAR    5.66453E-02    97.31    0.00000E+00     0.00
   84.00     5.00      -8.18 -999.99   -8.18    0.00000     0.00  LINEAR    9.97659E-02    95.61    0.00000E+00     0.00
   85.00     5.00      -5.52 -999.99   -5.52    0.00000     0.00  LINEAR    1.35533E-01    83.73    0.00000E+00     0.00
   86.00     5.00      -4.18 -999.99   -4.18    0.00000     0.00  LINEAR    1.58291E-01    69.21    0.00000E+00     0.00
   87.00     5.00      -3.78 -999.99   -3.78    0.00000     0.00  LINEAR    1.65596E-01    53.88    0.00000E+00     0.00
   88.00     5.00      -4.25 -999.99   -4.25    0.00000     0.00  LINEAR    1.56980E-01    38.57    0.00000E+00     0.00
   89.00     5.00      -5.64 -999.99   -5.64    0.00000     0.00  LINEAR    1.33789E-01    24.11    0.00000E+00     0.00
   90.00     5.00      -8.24 -999.99   -8.24    0.00000     0.00  LINEAR    9.91718E-02    12.21    0.00000E+00     0.00
   91.00     5.00     -12.76 -999.99  -12.76    0.00000     0.00  LINEAR    5.88905E-02     9.18    0.00000E+00     0.00
   92.00     5.00     -18.10 -999.99  -18.10    0.00000     0.00  LINEAR    3.18454E-02    46.77    0.00000E+00     0.00
   93.00     5.00     -13.28 -999.99  -13.28    0.00000     0.00  LINEAR    5.54597E-02    87.42    0.00000E+00     0.00
   94.00     5.00      -8.87 -999.99   -8.87    0.00000     0.00  LINEAR    9.21890E-02    85.40    0.00000E+00     0.00
   95.00     5.00      -6.43 -999.99   -6.43    0.00000     0.00  LINEAR    1.22122E-01    73.95    0.00000E+00     0.00
   96.00     5.00      -5.22 -999.99   -5.22    0.00000     0.00  LINEAR    1.40408E-01    59.92    0.00000E+00     0.00
   97.00     5.00      -4.93 -999.99   -4.93    0.00000     0.00  LINEAR    1.45142E-01    45.13    0.00000E+00     0.00
   98.00     5.00      -5.48 -999.99   -5.48    0.00000     0.00  LINEAR    1.36224E-01    30.51    0.00000E+00     0.00
   99.00     5.00      -6.94 -999.99   -6.94    0.00000     0.00  LINEAR    1.15149E-01    17.00    0.00000E+00     0.00
  100.00     5.00      -9.58 -999.99   -9.58    0.00000     0.00  LINEAR    8.50021E-02     6.62    0.00000E+00     0.00
  101.00     5.00     -13.94 -999.99  -13.94    0.00000     0.00  LINEAR    5.14463E-02     6.48    0.00000E+00     0.00
  102.00     5.00     -18.06 -999.99  -18.06    0.00000     0.00  LINEAR    3.20079E-02    43.01    0.00000E+00     0.00
  103.00     5.00     -13.91 -999.99  -13.91    0.00000     0.00  LINEAR    5.15977E-02    76.89    0.00000E+00     0.00
  104.00     5.00      -9.94 -999.99   -9.94    0.00000     0.00  LINEAR    8.15232E-02    76.00    0.00000E+00     0.00
  105.00     5.00      -7.64 -999.99   -7.64    0.00000     0.00  LINEAR    1.06187E-01    65.85    0.00000E+00     0.00
  106.00     5.00      -6.48 -999.99   -6.48    0.00000     0.00  LINEAR    1.21444E-01    52.98    0.00000E+00     0.00
  107.00     5.00      -6.17 -999.99   -6.17    0.00000     0.00  LINEAR    1.25782E-01    39.31    0.00000E+00     0.00
  108.00     5.00      -6.64 -999.99   -6.64    0.00000     0.00  LINEAR    1.19184E-01    25.80    0.00000E+00     0.00
  109.00     5.00      -7.92 -999.99   -7.92    0.00000     0.00  LINEAR    1.02886E-01    13.37    0.00000E+00     0.00
  110.00     5.00     -10.18 -999.99  -10.18    0.00000     0.00  LINEAR    7.93308E-02     3.76    0.00000E+00     0.00
  111.00     5.00     -13.73 -999.99  -13.73    0.00000     0.00  LINEAR    5.27096E-02     1.97    0.00000E+00     0.00
  112.00     5.00     -17.75 -999.99  -17.75    0.00000     0.00  LINEAR    3.31522E-02    24.08    0.00000E+00     0.00
  113.00     5.00     -16.12 -999.99  -16.12    0.00000     0.00  LINEAR    3.99988E-02    60.91    0.00000E+00     0.00
  114.00     5.00     -12.29 -999.99  -12.29    0.00000     0.00  LINEAR    6.21788E-02    68.13    0.00000E+00     0.00
  115.00     5.00      -9.75 -999.99   -9.75    0.00000     0.00  LINEAR    8.33105E-02    61.97    0.00000E+00     0.00
  116.00     5.00      -8.30 -999.99   -8.30    0.00000     0.00  LINEAR    9.84646E-02    51.61    0.00000E+00     0.00
  117.00     5.00      -7.67 -999.99   -7.67    0.00000     0.00  LINEAR    1.05908E-01    39.83    0.00000E+00     0.00
  118.00     5.00      -7.72 -999.99   -7.72    0.00000     0.00  LINEAR    1.05232E-01    27.80    0.00000E+00     0.00
  119.00     5.00      -8.43 -999.99   -8.43    0.00000     0.00  LINEAR    9.69638E-02    16.31    0.00000E+00     0.00
  120.00     5.00      -9.84 -999.99   -9.84    0.00000     0.00  LINEAR    8.24287E-02     6.36    0.00000E+00     0.00
  121.00     5.00     -12.07 -999.99  -12.07    0.00000     0.00  LINEAR    6.37757E-02    -0.11    0.00000E+00     0.00
  122.00     5.00     -15.18 -999.99  -15.18    0.00000     0.00  LINEAR    4.45699E-02     1.78    0.00000E+00     0.00
  123.00     5.00     -17.97 -999.99  -17.97    0.00000     0.00  LINEAR    3.23462E-02    22.08    0.00000E+00     0.00
  124.00     5.00     -16.83 -999.99  -16.83    0.00000     0.00  LINEAR    3.68603E-02    49.61    0.00000E+00     0.00
  125.00     5.00     -13.90 -999.99  -13.90    0.00000     0.00  LINEAR    5.16642E-02    58.14    0.00000E+00     0.00
  126.00     5.00     -11.66 -999.99  -11.66    0.00000     0.00  LINEAR    6.68999E-02    55.06    0.00000E+00     0.00
  127.00     5.00     -10.24 -999.99  -10.24    0.00000     0.00  LINEAR    7.87360E-02    47.50    0.00000E+00     0.00
  128.00     5.00      -9.50 -999.99   -9.50    0.00000     0.00  LINEAR    8.57494E-02    38.19    0.00000E+00     0.00
  129.00     5.00      -9.32 -999.99   -9.32    0.00000     0.00  LINEAR    8.75087E-02    28.36    0.00000E+00     0.00
  130.00     5.00      -9.66 -999.99   -9.66    0.00000     0.00  LINEAR    8.41926E-02    18.73    0.00000E+00     0.00
  131.00     5.00     -10.50 -999.99  -10.50    0.00000     0.00  LINEAR    7.64486E-02     9.96    0.00000E+00     0.00
  132.00     5.00     -11.86 -999.99  -11.86    0.00000     0.00  LINEAR    6.53363E-02     2.99    0.00000E+00     0.00
  133.00     5.00     -13.78 -999.99  -13.78    0.00000     0.00  LINEAR    5.23833E-02    -0.53    0.00000E+00     0.00
  134.00     5.00     -16.14 -999.99  -16.14    0.00000     0.00  LINEAR    3.99263E-02     2.68    0.00000E+00     0.00
  135.00     5.00     -18.09 -999.99  -18.09    0.00000     0.00  LINEAR    3.19008E-02    16.91    0.00000E+00     0.00
  136.00     5.00     -17.91 -999.99  -17.91    0.00000     0.00  LINEAR    3.25624E-02    36.86    0.00000E+00     0.00
  137.00     5.00     -16.05 -999.99  -16.05    0.00000     0.00  LINEAR    4.03359E-02    48.07    0.00000E+00     0.00
  138.00     5.00     -14.14 -999.99  -14.14    0.00000     0.00  LINEAR    5.02319E-02    49.73    0.00000E+00     0.00
  139.00     5.00     -12.71 -999.99  -12.71    0.00000     0.00  LINEAR    5.92546E-02    46.27    0.00000E+00     0.00
  140.00     5.00     -11.76 -999.99  -11.76    0.00000     0.00  LINEAR    6.60645E-02    40.37    0.00000E+00     0.00
  141.00     5.00     -11.25 -999.99  -11.25    0.00000     0.00  LINEAR    7.00911E-02    33.35    0.00000E+00     0.00
  142.00     5.00     -11.12 -999.99  -11.12    0.00000     0.00  LINEAR    7.11712E-02    25.94    0.00000E+00     0.00
  143.00     5.00     -11.34 -999.99  -11.34    0.00000     0.00  LINEAR    6.94044E-02    18.62    0.00000E+00     0.00
  144.00     5.00     -11.89 -999.99  -11.89    0.00000     0.00  LINEAR    6.50828E-02    11.81    0.00000E+00     0.00
  145.00     5.00     -12.80 -999.99  -12.80    0.00000     0.00  LINEAR    5.86552E-02     5.97    0.00000E+00     0.00
  146.00     5.00     -14.06 -999.99  -14.06    0.00000     0.00  LINEAR    5.07202E-02     1.82    0.00000E+00     0.00
  147.00     5.00     -15.68 -999.99  -15.68    0.00000     0.00  LINEAR    4.20752E-02     0.53    0.00000E+00     0.00
  148.00     5.00     -17.57 -999.99  -17.57    0.00000     0.00  LINEAR    3.38778E-02     4.13    0.00000E+00     0.00
  149.00     5.00     -19.24 -999.99  -19.24    0.00000     0.00  LINEAR    2.79501E-02    15.12    0.00000E+00     0.00
  150.00     5.00     -19.68 -999.99  -19.68    0.00000     0.00  LINEAR    2.65509E-02    32.17    0.00000E+00     0.00
  151.00     5.00     -18.56 -999.99  -18.56    0.00000     0.00  LINEAR    3.02124E-02    46.73    0.00000E+00     0.00
  152.00     5.00     -16.81 -999.99  -16.81    0.00000     0.00  LINEAR    3.69538E-02    53.96    0.00000E+00     0.00
  153.00     5.00     -15.15 -999.99  -15.15    0.00000     0.00  LINEAR    4.47378E-02    55.55    0.00000E+00     0.00
  154.00     5.00     -13.78 -999.99  -13.78    0.00000     0.00  LINEAR    5.24103E-02    53.88    0.00000E+00     0.00
  155.00     5.00     -12.69 -999.99  -12.69    0.00000     0.00  LINEAR    5.93849E-02    50.42    0.00000E+00     0.00
  156.00     5.00     -11.86 -999.99  -11.86    0.00000     0.00  LINEAR    6.53617E-02    45.96    0.00000E+00     0.00
  157.00     5.00     -11.24 -999.99  -11.24    0.00000     0.00  LINEAR    7.01954E-02    40.95    0.00000E+00     0.00
  158.00     5.00     -10.80 -999.99  -10.80    0.00000     0.00  LINEAR    7.38339E-02    35.68    0.00000E+00     0.00
  159.00     5.00     -10.52 -999.99  -10.52    0.00000     0.00  LINEAR    7.62863E-02    30.30    0.00000E+00     0.00
  160.00     5.00     -10.37 -999.99  -10.37    0.00000     0.00  LINEAR    7.76033E-02    24.92    0.00000E+00     0.00
  161.00     5.00     -10.34 -999.99  -10.34    0.00000     0.00  LINEAR    7.78636E-02    19.62    0.00000E+00     0.00
  162.00     5.00     -10.42 -999.99  -10.42    0.00000     0.00  LINEAR    7.71639E-02    14.44    0.00000E+00     0.00
  163.00     5.00     -10.59 -999.99  -10.59    0.00000     0.00  LINEAR    7.56112E-02     9.44    0.00000E+00     0.00
  164.00     5.00     -10.86 -999.99  -10.86    0.00000     0.00  LINEAR    7.33161E-02     4.63    0.00000E+00     0.00
  165.00     5.00     -11.21 -999.99  -11.21    0.00000     0.00  LINEAR    7.03884E-02     0.05    0.00000E+00     0.00
  166.00     5.00     -11.65 -999.99  -11.65    0.00000     0.00  LINEAR    6.69333E-02    -4.30    0.00000E+00     0.00
  167.00     5.00     -12.17 -999.99  -12.17    0.00000     0.00  LINEAR    6.30486E-02    -8.40    0.00000E+00     0.00
  168.00     5.00     -12.77 -999.99  -12.77    0.00000     0.00  LINEAR    5.88229E-02   -12.23    0.00000E+00     0.00
  169.00     5.00     -13.46 -999.99  -13.46    0.00000     0.00  LINEAR    5.43344E-02   -15.78    0.00000E+00     0.00
  170.00     5.00     -14.25 -999.99  -14.25    0.00000     0.00  LINEAR    4.96508E-02   -19.06    0.00000E+00     0.00
  171.00     5.00     -15.13 -999.99  -15.13    0.00000     0.00  LINEAR    4.48286E-02   -22.04    0.00000E+00     0.00
  172.00     5.00     -16.14 -999.99  -16.14    0.00000     0.00  LINEAR    3.99141E-02   -24.72    0.00000E+00     0.00
  173.00     5.00     -17.30 -999.99  -17.30    0.00000     0.00  LINEAR    3.49436E-02   -27.10    0.00000E+00     0.00
  174.00     5.00     -18.64 -999.99  -18.64    0.00000     0.00  LINEAR    2.99443E-02   -29.18    0.00000E+00     0.00
  175.00     5.00     -20.23 -999.99  -20.23    0.00000     0.00  LINEAR    2.49356E-02   -30.94    0.00000E+00     0.00
  176.00     5.00     -22.17 -999.99  -22.17    0.00000     0.00  LINEAR    1.99297E-02   -32.39    0.00000E+00     0.00
  177.00     5.00     -24.68 -999.99  -24.68    0.00000     0.00  LINEAR    1.49330E-02   -33.51    0.00000E+00     0.00
  178.00     5.00     -28.21 -999.99  -28.21    0.00000     0.00  LINEAR    9.94740E-03   -34.32    0.00000E+00     0.00
  179.00     5.00     -34.24 -999.99  -34.24    0.00000     0.00  LINEAR    4.97109E-03   -34.81    0.00000E+00     0.00
  180.00     5.00    -151.35 -999.99 -151.35    0.00000     0.00  LINEAR    6.93014E-09   -34.97    0.00000E+00     0.00
    0.00    10.00    -999.99 -999.99 -999.99    0.00000     0.00            0.00000E+00     0.00    0.00000E+00     0.00
    1.00    10.00     -17.76 -999.99  -17.76    0.00000     0.00  LINEAR    3.31157E-02   177.58    0.00000E+00     0.00
    2.00    10.00     -11.74 -999.99  -11.74    0.00000     0.00  LINEAR    6.62345E-02   177.10    0.00000E+00     0.00
    3.00    10.00      -8.22 -999.99   -8.22    0.00000     0.00  LINEAR    9.93540E-02   176.30    0.00000E+00     0.00
    4.00    10.00      -5.72 -999.99   -5.72    0.00000     0.00  LINEAR    1.32462E-01   175.17    0.00000E+00     0.00
    5.00    10.00      -3.79 -999.99   -3.79    0.00000     0.00  LINEAR    1.65530E-01   173.73    0.00000E+00     0.00
    6.00    10.00      -2.21 -999.99   -2.21    0.00000     0.00  LINEAR    1.98510E-01   171.96    0.00000E+00     0.00
    7.00    10.00      -0.88 -999.99   -0.88    0.00000     0.00  LINEAR    2.31328E-01   169.88    0.00000E+00     0.00
    8.00    10.00       0.26 -999.99    0.26    0.00000     0.00  LINEAR    2.63879E-01   167.48    0.00000E+00     0.00
    9.00    10.00       1.26 -999.99    1.26    0.00000     0.00  LINEAR    2.96024E-01   164.76    0.00000E+00     0.00
   10.00    10.00       2.14 -999.99    2.14    0.00000     0.00  LINEAR    3.27585E-01   161.73    0.00000E+00     0.00
   11.00    10.00       2.92 -999.99    2.92    0.00000     0.00  LINEAR    3.58340E-01   158.38    0.00000E+00     0.00
   12.00    10.00       3.61 -999.99    3.61    0.00000     0.00  LINEAR    3.88023E-01   154.71    0.00000E+00     0.00
   13.00    10.00       4.22 -999.99    4.22    0.00000     0.00  LINEAR    4.16319E-01   150.74    0.00000E+00     0.00
   14.00    10.00       4.76 -999.99    4.76    0.00000     0.00  LINEAR    4.42866E-01   146.45    0.00000E+00     0.00
   15.00    10.00       5.23 -999.99    5.23    0.00000     0.00  LINEAR    4.67254E-01   141.85    0.00000E+00     0.00
   16.00    10.00       5.62 -999.99    5.62    0.00000     0.00  LINEAR    4.89032E-01   136.95    0.00000E+00     0.00
   17.00    10.00       5.95 -999.99    5.95    0.00000     0.00  LINEAR    5.07705E-01   131.75    0.00000E+00     0.00
   18.00    10.00       6.20 -999.99    6.20    0.00000     0.00  LINEAR    5.22753E-01   126.25    0.00000E+00     0.00
   19.00    10.00       6.38 -999.99    6.38    0.00000     0.00  LINEAR    5.33630E-01   120.45    0.00000E+00     0.00
   20.00    10.00       6.48 -999.99    6.48    0.00000     0.00  LINEAR    5.39789E-01   114.35    0.00000E+00     0.00
   21.00    10.00       6.49 -999.99    6.49    0.00000     0.00  LINEAR    5.40692E-01   107.98    0.00000E+00     0.00
   22.00    10.00       6.42 -999.99    6.42    0.00000     0.00  LINEAR    5.35830E-01   101.32    0.00000E+00     0.00
   23.00    10.00       6.23 -999.99    6.23    0.00000     0.00  LINEAR    5.24754E-01    94.39    0.00000E+00     0.00
   24.00    10.00       5.94 -999.99    5.94    0.00000     0.00  LINEAR    5.07094E-01    87.20    0.00000E+00     0.00
   25.00    10.00       5.51 -999.99    5.51    0.00000     0.00  LINEAR    4.82591E-01    79.76    0.00000E+00     0.00
   26.00    10.00       4.92 -999.99    4.92    0.00000     0.00  LINEAR    4.51128E-01    72.10    0.00000E+00     0.00
   27.00    10.00       4.15 -999.99    4.15    0.00000     0.00  LINEAR    4.12759E-01    64.25    0.00000E+00     0.00
   28.00    10.00       3.15 -999.99    3.15    0.00000     0.00  LINEAR    3.67738E-01    56.25    0.00000E+00     0.00
   29.00    10.00       1.84 -999.99    1.84    0.00000     0.00  LINEAR    3.16552E-01    48.19    0.00000E+00     0.00
   30.00    10.00       0.13 -999.99    0.13    0.00000     0.00  LINEAR    2.59950E-01    40.25    0.00000E+00     0.00
   31.00    10.00      -2.19 -999.99   -2.19    0.00000     0.00  LINEAR    1.98985E-01    32.81    0.00000E+00     0.00
   32.00    10.00      -5.55 -999.99   -5.55    0.00000     0.00  LINEAR    1.35149E-01    27.02    0.00000E+00     0.00
   33.00    10.00     -11.12 -999.99  -11.12    0.00000     0.00  LINEAR    7.11972E-02    28.11    0.00000E+00     0.00
   34.00    10.00     -19.42 -999.99  -19.42    0.00000     0.00  LINEAR    2.73553E-02    87.69    0.00000E+00     0.00
   35.00    10.00     -11.06 -999.99  -11.06    0.00000     0.00  LINEAR    7.16143E-02   142.71    0.00000E+00     0.00
   36.00    10.00      -5.85 -999.99   -5.85    0.00000     0.00  LINEAR    1.30550E-01   142.52    0.00000E+00     0.00
   37.00    10.00      -2.80 -999.99   -2.80    0.00000     0.00  LINEAR    1.85437E-01   135.36    0.00000E+00     0.00
   38.00    10.00      -0.82 -999.99   -0.82    0.00000     0.00  LINEAR    2.33052E-01   126.14    0.00000E+00     0.00
   39.00    10.00       0.50 -999.99    0.50    0.00000     0.00  LINEAR    2.71248E-01   115.94    0.00000E+00     0.00
   40.00    10.00       1.33 -999.99    1.33    0.00000     0.00  LINEAR    2.98288E-01   105.16    0.00000E+00     0.00
   41.00    10.00       1.74 -999.99    1.74    0.00000     0.00  LINEAR    3.12834E-01    94.00    0.00000E+00     0.00
   42.00    10.00       1.77 -999.99    1.77    0.00000     0.00  LINEAR    3.14016E-01    82.55    0.00000E+00     0.00
   43.00    10.00       1.42 -999.99    1.42    0.00000     0.00  LINEAR    3.01521E-01    70.93    0.00000E+00     0.00
   44.00    10.00       0.64 -999.99    0.64    0.00000     0.00  LINEAR    2.75669E-01    59.26    0.00000E+00     0.00
   45.00    10.00      -0.65 -999.99   -0.65    0.00000     0.00  LINEAR    2.37469E-01    47.73    0.00000E+00     0.00
   46.00    10.00      -2.65 -999.99   -2.65    0.00000     0.00  LINEAR    1.88666E-01    36.79    0.00000E+00     0.00
   47.00    10.00      -5.76 -999.99   -5.76    0.00000     0.00  LINEAR    1.31857E-01    27.62    0.00000E+00     0.00
   48.00    10.00     -11.10 -999.99  -11.10    0.00000     0.00  LINEAR    7.13282E-02    25.65    0.00000E+00     0.00
   49.00    10.00     -18.92 -999.99  -18.92    0.00000     0.00  LINEAR    2.89775E-02    79.46    0.00000E+00     0.00
   50.00    10.00     -11.10 -999.99  -11.10    0.00000     0.00  LINEAR    7.13003E-02   130.63    0.00000E+00     0.00
   51.00    10.00      -6.02 -999.99   -6.02    0.00000     0.00  LINEAR    1.28040E-01   127.75    0.00000E+00     0.00
   52.00    10.00      -3.15 -999.99   -3.15    0.00000     0.00  LINEAR    1.78146E-01   117.58    0.00000E+00     0.00
   53.00    10.00      -1.43 -999.99   -1.43    0.00000     0.00  LINEAR    2.17085E-01   105.30    0.00000E+00     0.00
   54.00    10.00      -0.49 -999.99   -0.49    0.00000     0.00  LINEAR    2.42013E-01    92.13    0.00000E+00     0.00
   55.00    10.00      -0.17 -999.99   -0.17    0.00000     0.00  LINEAR    2.51126E-01    78.52    0.00000E+00     0.00
   56.00    10.00      -0.43 -999.99   -0.43    0.00000     0.00  LINEAR    2.43693E-01    64.73    0.00000E+00     0.00
   57.00    10.00      -1.31 -999.99   -1.31    0.00000     0.00  LINEAR    2.20144E-01    51.05    0.00000E+00     0.00
   58.00    10.00      -2.96 -999.99   -2.96    0.00000     0.00  LINEAR    1.82127E-01    37.92    0.00000E+00     0.00
   59.00    10.00      -5.71 -999.99   -5.71    0.00000     0.00  LINEAR    1.32578E-01    26.46    0.00000E+00     0.00
   60.00    10.00     -10.51 -999.99  -10.51    0.00000     0.00  LINEAR    7.63415E-02    21.27    0.00000E+00     0.00
   61.00    10.00     -18.38 -999.99  -18.38    0.00000     0.00  LINEAR    3.08568E-02    59.33    0.00000E+00     0.00
   62.00    10.00     -12.19 -999.99  -12.19    0.00000     0.00  LINEAR    6.29410E-02   118.64    0.00000E+00     0.00
   63.00    10.00      -6.85 -999.99   -6.85    0.00000     0.00  LINEAR    1.16301E-01   116.54    0.00000E+00     0.00
   64.00    10.00      -3.96 -999.99   -3.96    0.00000     0.00  LINEAR    1.62340E-01   105.21    0.00000E+00     0.00
   65.00    10.00      -2.34 -999.99   -2.34    0.00000     0.00  LINEAR    1.95440E-01    91.46    0.00000E+00     0.00
   66.00    10.00      -1.62 -999.99   -1.62    0.00000     0.00  LINEAR    2.12545E-01    76.80    0.00000E+00     0.00
   67.00    10.00      -1.63 -999.99   -1.63    0.00000     0.00  LINEAR    2.12185E-01    61.84    0.00000E+00     0.00
   68.00    10.00      -2.39 -999.99   -2.39    0.00000     0.00  LINEAR    1.94465E-01    47.00    0.00000E+00     0.00
   69.00    10.00      -4.02 -999.99   -4.02    0.00000     0.00  LINEAR    1.61097E-01    32.89    0.00000E+00     0.00
   70.00    10.00      -6.91 -999.99   -6.91    0.00000     0.00  LINEAR    1.15473E-01    21.04    0.00000E+00     0.00
   71.00    10.00     -12.09 -999.99  -12.09    0.00000     0.00  LINEAR    6.36277E-02    18.05    0.00000E+00     0.00
   72.00    10.00     -18.32 -999.99  -18.32    0.00000     0.00  LINEAR    3.10587E-02    69.43    0.00000E+00     0.00
   73.00    10.00     -11.39 -999.99  -11.39    0.00000     0.00  LINEAR    6.89390E-02   109.24    0.00000E+00     0.00
   74.00    10.00      -6.80 -999.99   -6.80    0.00000     0.00  LINEAR    1.16940E-01   103.87    0.00000E+00     0.00
   75.00    10.00      -4.32 -999.99   -4.32    0.00000     0.00  LINEAR    1.55675E-01    91.21    0.00000E+00     0.00
   76.00    10.00      -3.05 -999.99   -3.05    0.00000     0.00  LINEAR    1.80142E-01    76.50    0.00000E+00     0.00
   77.00    10.00      -2.69 -999.99   -2.69    0.00000     0.00  LINEAR    1.87889E-01    61.11    0.00000E+00     0.00
   78.00    10.00      -3.14 -999.99   -3.14    0.00000     0.00  LINEAR    1.78338E-01    45.69    0.00000E+00     0.00
   79.00    10.00      -4.49 -999.99   -4.49    0.00000     0.00  LINEAR    1.52728E-01    30.93    0.00000E+00     0.00
   80.00    10.00      -7.02 -999.99   -7.02    0.00000     0.00  LINEAR    1.14125E-01    18.22    0.00000E+00     0.00
   81.00    10.00     -11.51 -999.99  -11.51    0.00000     0.00  LINEAR    6.80351E-02    12.73    0.00000E+00     0.00
   82.00    10.00     -18.05 -999.99  -18.05    0.00000     0.00  LINEAR    3.20461E-02    46.81    0.00000E+00     0.00
   83.00    10.00     -13.10 -999.99  -13.10    0.00000     0.00  LINEAR    5.66453E-02    97.31    0.00000E+00     0.00
   84.00    10.00      -8.18 -999.99   -8.18    0.00000     0.00  LINEAR    9.97659E-02    95.61    0.00000E+00     0.00
   85.00    10.00      -5.52 -999.99   -5.52    0.00000     0.00  LINEAR    1.35533E-01    83.73    0.00000E+00     0.00
   86.00    10.00      -4.18 -999.99   -4.18    0.00000     0.00  LINEAR    1.58291E-01    69.21    0.00000E+00     0.00
   87.00    10.00      -3.78 -999.99   -3.78    0.00000     0.00  LINEAR    1.65596E-01    53.88    0.00000E+00     0.00
   88.00    10.00      -4.25 -999.99   -4.25    0.00000     0.00  LINEAR    1.56980E-01    38.57    0.00000E+00     0.00
   89.00    10.00      -5.64 -999.99   -5.64    0.00000     0.00  LINEAR    1.33789E-01    24.11    0.00000E+00     0.00
   90.00    10.00      -8.24 -999.99   -8.24    0.00000     0.00  LINEAR    9.91718E-02    12.21    0.00000E+00     0.00
   91.00    10.00     -12.76 -999.99  -12.76    0.00000     0.00  LINEAR    5.88905E-02     9.18    0.00000E+00     0.00
   92.00    10.00     -18.10 -999.99  -18.10    0.00000     0.00  LINEAR    3.18454E-02    46.77    0.00000E+00     0.00
   93.00    10.00     -13.28 -999.99  -13.28    0.00000     0.00  LINEAR    5.54597E-02    87.42    0.00000E+00     0.00
   94.00    10.00      -8.87 -999.99   -8.87    0.00000     0.00  LINEAR    9.21890E-02    85.40    0.00000E+00     0.00
   95.00    10.00      -6.43 -999.99   -6.43    0.00000     0.00  LINEAR    1.22122E-01    73.95    0.00000E+00     0.00
   96.00    10.00      -5.22 -999.99   -5.22    0.00000     0.00  LINEAR    1.40408E-01    59.92    0.00000E+00     0.00
   97.00    10.00      -4.93 -999.99   -4.93    0.00000     0.00  LINEAR    1.45142E-01    45.13    0.00000E+00     0.00
   98.00    10.00      -5.48 -999.99   -5.48    0.00000     0.00  LINEAR    1.36224E-01    30.51    0.00000E+00     0.00
   99.00    10.00      -6.94 -999.99   -6.94    0.00000     0.00  LINEAR    1.15149E-01    17.00    0.00000E+00     0.00
  100.00    10.00      -9.58 -999.99   -9.58    0.00000     0.00  LINEAR    8.50021E-02     6.62    0.00000E+00     0.00
  101.00    10.00     -13.94 -999.99  -13.94    0.00000     0.00  LINEAR    5.14463E-02     6.48    0.00000E+00     0.00
  102.00    10.00     -18.06 -999.99  -18.06    0.00000     0.00  LINEAR    3.20079E-02    43.01    0.00000E+00     0.00
  103.00    10.00     -13.91 -999.99  -13.91    0.00000     0.00  LINEAR    5.15977E-02    76.89    0.00000E+00     0.00
  104.00    10.00      -9.94 -999.99   -9.94    0.00000     0.00  LINEAR    8.15232E-02    76.00    0.00000E+00     0.00
  105.00    10.00      -7.64 -999.99   -7.64    0.00000     0.00  LINEAR    1.06187E-01    65.85    0.00000E+00     0.00
  106.00    10.00      -6.48 -999.99   -6.48    0.00000     0.00  LINEAR    1.21444E-01    52.98    0.00000E+00     0.00
  107.00    10.00      -6.17 -999.99   -6.17    0.00000     0.00  LINEAR    1.25782E-01    39.31    0.00000E+00     0.00
  108.00    10.00      -6.64 -999.99   -6.64    0.00000     0.00  LINEAR    1.19184E-01    25.80    0.00000E+00     0.00
  109.00    10.00      -7.92 -999.99   -7.92    0.00000     0.00  LINEAR    1.02886E-01    13.37    0.00000E+00     0.00
  110.00    10.00     -10.18 -999.99  -10.18    0.00000     0.00  LINEAR    7.93308E-02     3.76    0.00000E+00     0.00
  111.00    10.00     -13.73 -999.99  -13.73    0.00000     0.00  LINEAR    5.27096E-02     1.97    0.00000E+00     0.00
  112.00    10.00     -17.75 -999.99  -17.75    0.00000     0.00  LINEAR    3.31522E-02    24.08    0.00000E+00     0.00
  113.00    10.00     -16.12 -999.99  -16.12    0.00000     0.00  LINEAR    3.99988E-02    60.91    0.00000E+00     0.00
  114.00    10.00     -12.29 -999.99  -12.29    0.00000     0.00  LINEAR    6.21788E-02    68.13    0.00000E+00     0.00
  115.00    10.00      -9.75 -999.99   -9.75    0.00000     0.00  LINEAR    8.33105E-02    61.97    0.00000E+00     0.00
  116.00    10.00      -8.30 -999.99   -8.30    0.00000     0.00  LINEAR    9.84646E-02    51.61    0.00000E+00     0.00
[...]
   44.00   354.00     -15.47  -36.30  -15.44    0.01457     5.13  LEFT      4.36234E-02  -138.46    3.96577E-03  -129.16
   46.00   354.00     -14.88  -35.89  -14.84    0.01508     5.01  LEFT      4.67115E-02  -137.44    4.15665E-03  -127.60
   48.00   354.00     -14.44  -35.65  -14.40    0.01558     4.89  LEFT      4.91559E-02  -135.74    4.27405E-03  -125.35
   50.00   354.00     -14.15  -35.58  -14.12    0.01603     4.76  LEFT      5.07946E-02  -134.31    4.30703E-03  -123.33
   52.00   354.00     -13.94  -35.61  -13.91    0.01646     4.62  LEFT      5.20641E-02  -133.74    4.29608E-03  -122.16
   54.00   354.00     -13.67  -35.60  -13.65    0.01683     4.48  LEFT      5.36521E-02  -134.01    4.29842E-03  -121.81
   56.00   354.00     -13.30  -35.50  -13.27    0.01716     4.33  LEFT      5.60360E-02  -134.59    4.34843E-03  -121.74
   58.00   354.00     -12.82  -35.32  -12.79    0.01743     4.17  LEFT      5.92109E-02  -134.82    4.43906E-03  -121.30
   60.00   354.00     -12.31  -35.14  -12.29    0.01766     4.01  LEFT      6.27725E-02  -134.36    4.53392E-03  -120.14
   62.00   354.00     -11.85  -35.03  -11.83    0.01783     3.84  LEFT      6.62034E-02  -133.29    4.59285E-03  -118.33
   64.00   354.00     -11.48  -35.03  -11.46    0.01795     3.66  LEFT      6.91051E-02  -131.87    4.58954E-03  -116.13
   66.00   354.00     -11.21  -35.17  -11.19    0.01801     3.48  LEFT      7.12792E-02  -130.41    4.51542E-03  -113.84
   68.00   354.00     -11.04  -35.45  -11.02    0.01801     3.29  LEFT      7.26939E-02  -129.13    4.37487E-03  -111.66
   70.00   354.00     -10.95  -35.85  -10.94    0.01795     3.09  LEFT      7.33992E-02  -128.17    4.17791E-03  -109.73
   72.00   354.00     -10.95  -36.37  -10.94    0.01783     2.89  LEFT      7.34400E-02  -127.56    3.93407E-03  -108.07
   74.00   354.00     -11.03  -37.02  -11.01    0.01766     2.69  LEFT      7.27906E-02  -127.32    3.64920E-03  -106.64
   76.00   354.00     -11.20  -37.83  -11.19    0.01743     2.48  LEFT      7.13219E-02  -127.40    3.32508E-03  -105.40
   78.00   354.00     -11.52  -38.84  -11.51    0.01714     2.26  LEFT      6.87927E-02  -127.81    2.96090E-03  -104.30
   80.00   354.00     -12.03  -40.12  -12.02    0.01680     2.04  LEFT      6.48511E-02  -128.58    2.55543E-03  -103.31
   82.00   354.00     -12.85  -41.79  -12.84    0.01640     1.82  LEFT      5.90274E-02  -129.78    2.10878E-03  -102.43
   84.00   354.00     -14.17  -44.06  -14.16    0.01594     1.59  LEFT      5.06988E-02  -131.56    1.62353E-03  -101.67
   86.00   354.00     -16.44  -47.40  -16.44    0.01544     1.36  LEFT      3.90100E-02  -134.10    1.10491E-03  -101.05
   88.00   354.00     -21.14  -53.29  -21.13    0.01489     1.13  LEFT      2.27257E-02  -137.73    5.60577E-04  -100.58
   90.00   354.00    -148.87 -182.38 -148.87    0.01429     0.89  LEFT      9.33107E-09  -142.90    1.97036E-10  -100.30
    0.00   356.00     -22.60  -45.71  -22.58    0.00000     4.00  LINEAR    1.91912E-02  -135.38    1.34198E-03  -135.38
    2.00   356.00     -22.06  -45.14  -22.04    0.00036     4.02  LEFT      2.04241E-02  -136.01    1.43395E-03  -135.71
    4.00   356.00     -21.70  -44.74  -21.67    0.00074     4.03  LEFT      2.13074E-02  -134.28    1.50082E-03  -133.67
    6.00   356.00     -21.71  -44.73  -21.69    0.00114     4.04  LEFT      2.12730E-02  -132.98    1.50211E-03  -132.05
    8.00   356.00     -21.77  -44.78  -21.75    0.00158     4.04  LEFT      2.11277E-02  -134.37    1.49406E-03  -133.09
   10.00   356.00     -21.43  -44.43  -21.41    0.00202     4.04  LEFT      2.19761E-02  -136.80    1.55459E-03  -135.16
   12.00   356.00     -20.84  -43.85  -20.82    0.00245     4.04  LEFT      2.35071E-02  -137.01    1.66207E-03  -135.01
   14.00   356.00     -20.49  -43.51  -20.47    0.00291     4.04  LEFT      2.44769E-02  -135.26    1.72862E-03  -132.89
   16.00   356.00     -20.48  -43.52  -20.46    0.00339     4.03  LEFT      2.45137E-02  -134.38    1.72764E-03  -131.61
   18.00   356.00     -20.44  -43.51  -20.42    0.00389     4.01  LEFT      2.46176E-02  -136.00    1.72909E-03  -132.81
   20.00   356.00     -20.02  -43.13  -20.00    0.00437     3.99  LEFT      2.58497E-02  -138.24    1.80713E-03  -134.64
   22.00   356.00     -19.39  -42.55  -19.37    0.00484     3.97  LEFT      2.77825E-02  -138.37    1.93152E-03  -134.36
   24.00   356.00     -18.97  -42.18  -18.95    0.00531     3.94  LEFT      2.91589E-02  -136.72    2.01452E-03  -132.29
   26.00   356.00     -18.85  -42.13  -18.83    0.00580     3.91  LEFT      2.95600E-02  -135.64    2.02730E-03  -130.76
   28.00   356.00     -18.76  -42.11  -18.74    0.00630     3.87  LEFT      2.98670E-02  -136.66    2.03045E-03  -131.31
   30.00   356.00     -18.38  -41.82  -18.36    0.00678     3.83  LEFT      3.12251E-02  -138.66    2.10118E-03  -132.86
   32.00   356.00     -17.74  -41.28  -17.72    0.00722     3.78  LEFT      3.35969E-02  -139.31    2.23532E-03  -133.05
   34.00   356.00     -17.17  -40.82  -17.15    0.00766     3.73  LEFT      3.58757E-02  -138.09    2.35771E-03  -131.36
   36.00   356.00     -16.85  -40.61  -16.83    0.00810     3.68  LEFT      3.72353E-02  -136.41    2.41418E-03  -129.20
   38.00   356.00     -16.69  -40.59  -16.67    0.00854     3.62  LEFT      3.79070E-02  -135.86    2.42110E-03  -128.15
   40.00   356.00     -16.47  -40.51  -16.45    0.00896     3.56  LEFT      3.89039E-02  -136.83    2.44371E-03  -128.60
   42.00   356.00     -16.01  -40.20  -15.99    0.00935     3.49  LEFT      4.10247E-02  -138.14    2.53028E-03  -129.39
   44.00   356.00     -15.38  -39.75  -15.37    0.00971     3.42  LEFT      4.40748E-02  -138.36    2.66511E-03  -129.09
   46.00   356.00     -14.79  -39.35  -14.78    0.01005     3.34  LEFT      4.71666E-02  -137.24    2.79172E-03  -127.42
   48.00   356.00     -14.36  -39.12  -14.35    0.01038     3.26  LEFT      4.95637E-02  -135.51    2.86644E-03  -125.14
   50.00   356.00     -14.09  -39.06  -14.07    0.01068     3.17  LEFT      5.11641E-02  -134.13    2.88560E-03  -123.18
   52.00   356.00     -13.87  -39.08  -13.86    0.01096     3.08  LEFT      5.24610E-02  -133.65    2.87923E-03  -122.10
   54.00   356.00     -13.59  -39.06  -13.58    0.01121     2.98  LEFT      5.41601E-02  -134.00    2.88605E-03  -121.82
   56.00   356.00     -13.19  -38.94  -13.18    0.01142     2.88  LEFT      5.67058E-02  -134.56    2.92679E-03  -121.74
   58.00   356.00     -12.70  -38.74  -12.69    0.01161     2.78  LEFT      6.00341E-02  -134.69    2.99354E-03  -121.20
   60.00   356.00     -12.18  -38.55  -12.17    0.01175     2.67  LEFT      6.36972E-02  -134.12    3.06000E-03  -119.93
   62.00   356.00     -11.72  -38.44  -11.71    0.01187     2.55  LEFT      6.71680E-02  -132.94    3.09927E-03  -118.01
   64.00   356.00     -11.36  -38.45  -11.35    0.01194     2.44  LEFT      7.00646E-02  -131.46    3.09492E-03  -115.75
   66.00   356.00     -11.09  -38.60  -11.09    0.01198     2.31  LEFT      7.22154E-02  -129.97    3.04267E-03  -113.42
   68.00   356.00     -10.93  -38.88  -10.92    0.01198     2.19  LEFT      7.36135E-02  -128.69    2.94655E-03  -111.26
   70.00   356.00     -10.84  -39.28  -10.84    0.01194     2.06  LEFT      7.43242E-02  -127.75    2.81375E-03  -109.34
   72.00   356.00     -10.84  -39.80  -10.83    0.01186     1.92  LEFT      7.43953E-02  -127.17    2.65060E-03  -107.71
   74.00   356.00     -10.91  -40.45  -10.90    0.01174     1.79  LEFT      7.37930E-02  -126.94    2.46052E-03  -106.30
   76.00   356.00     -11.08  -41.25  -11.07    0.01159     1.65  LEFT      7.23729E-02  -127.03    2.24412E-03  -105.06
   78.00   356.00     -11.38  -42.24  -11.38    0.01140     1.50  LEFT      6.98756E-02  -127.42    2.00032E-03  -103.95
   80.00   356.00     -11.88  -43.52  -11.88    0.01117     1.36  LEFT      6.59323E-02  -128.17    1.72797E-03  -102.94
   82.00   356.00     -12.70  -45.18  -12.69    0.01090     1.21  LEFT      6.00575E-02  -129.35    1.42704E-03  -102.03
   84.00   356.00     -14.01  -47.44  -14.01    0.01060     1.06  LEFT      5.16140E-02  -131.10    1.09931E-03  -101.24
   86.00   356.00     -16.28  -50.78  -16.28    0.01026     0.91  LEFT      3.97305E-02  -133.62    7.48452E-04  -100.60
   88.00   356.00     -20.98  -56.68  -20.97    0.00990     0.75  LEFT      2.31509E-02  -137.23    3.79819E-04  -100.12
   90.00   356.00    -148.71 -185.76 -148.71    0.00950     0.59  LEFT      9.50641E-09  -142.40    1.33512E-10   -99.83
    0.00   358.00     -22.59  -51.73  -22.58    0.00000     2.00  LINEAR    1.92263E-02  -135.38    6.71398E-04  -135.38
    2.00   358.00     -22.05  -51.15  -22.04    0.00018     2.01  LEFT      2.04642E-02  -136.01    7.17502E-04  -135.71
    4.00   358.00     -21.68  -50.75  -21.67    0.00037     2.01  LEFT      2.13486E-02  -134.27    7.50931E-04  -133.66
    6.00   358.00     -21.69  -50.75  -21.69    0.00057     2.02  LEFT      2.13114E-02  -132.98    7.51472E-04  -132.05
    8.00   358.00     -21.75  -50.79  -21.75    0.00079     2.02  LEFT      2.11697E-02  -134.39    7.47581E-04  -133.11
   10.00   358.00     -21.41  -50.44  -21.40    0.00101     2.02  LEFT      2.20311E-02  -136.81    7.78263E-04  -135.17
   12.00   358.00     -20.82  -49.86  -20.81    0.00123     2.02  LEFT      2.35686E-02  -136.99    8.32158E-04  -134.99
   14.00   358.00     -20.47  -49.53  -20.47    0.00145     2.02  LEFT      2.45305E-02  -135.23    8.65103E-04  -132.86
   16.00   358.00     -20.46  -49.53  -20.46    0.00170     2.01  LEFT      2.45598E-02  -134.37    8.64334E-04  -131.61
   18.00   358.00     -20.42  -49.52  -20.42    0.00195     2.01  LEFT      2.46772E-02  -136.03    8.65518E-04  -132.84
   20.00   358.00     -19.99  -49.13  -19.98    0.00219     2.00  LEFT      2.59364E-02  -138.26    9.05412E-04  -134.66
   22.00   358.00     -19.36  -48.55  -19.36    0.00242     1.98  LEFT      2.78783E-02  -138.33    9.67828E-04  -134.33
   24.00   358.00     -18.95  -48.19  -18.94    0.00266     1.97  LEFT      2.92387E-02  -136.66    1.00870E-03  -132.24
   26.00   358.00     -18.83  -48.14  -18.83    0.00290     1.95  LEFT      2.96255E-02  -135.62    1.01456E-03  -130.75
   28.00   358.00     -18.74  -48.12  -18.73    0.00315     1.94  LEFT      2.99508E-02  -136.69    1.01672E-03  -131.36
   30.00   358.00     -18.34  -47.81  -18.34    0.00339     1.91  LEFT      3.13538E-02  -138.69    1.05350E-03  -132.90
   32.00   358.00     -17.70  -47.27  -17.70    0.00361     1.89  LEFT      3.37535E-02  -139.27    1.12137E-03  -133.02
   34.00   358.00     -17.14  -46.81  -17.13    0.00383     1.87  LEFT      3.60214E-02  -138.00    1.18206E-03  -131.29
   36.00   358.00     -16.82  -46.62  -16.82    0.00405     1.84  LEFT      3.73529E-02  -136.34    1.20928E-03  -129.14
   38.00   358.00     -16.67  -46.59  -16.66    0.00427     1.81  LEFT      3.80211E-02  -135.85    1.21255E-03  -128.15
   40.00   358.00     -16.43  -46.50  -16.43    0.00448     1.78  LEFT      3.90627E-02  -136.86    1.22517E-03  -128.64
   42.00   358.00     -15.96  -46.19  -15.95    0.00467     1.74  LEFT      4.12526E-02  -138.15    1.27042E-03  -129.41
   44.00   358.00     -15.33  -45.73  -15.33    0.00485     1.71  LEFT      4.43477E-02  -138.30    1.33898E-03  -129.04
   46.00   358.00     -14.74  -45.33  -14.74    0.00503     1.67  LEFT      4.74387E-02  -137.11    1.40200E-03  -127.32
   48.00   358.00     -14.32  -45.11  -14.32    0.00519     1.63  LEFT      4.98063E-02  -135.37    1.43827E-03  -125.02
   50.00   358.00     -14.05  -45.06  -14.05    0.00534     1.58  LEFT      5.13857E-02  -134.03    1.44706E-03  -123.09
   52.00   358.00     -13.83  -45.07  -13.83    0.00548     1.54  LEFT      5.27036E-02  -133.61    1.44428E-03  -122.07
   54.00   358.00     -13.54  -45.04  -13.54    0.00560     1.49  LEFT      5.44742E-02  -133.99    1.44938E-03  -121.83
   56.00   358.00     -13.13  -44.91  -13.13    0.00571     1.44  LEFT      5.71191E-02  -134.54    1.47201E-03  -121.73
   58.00   358.00     -12.63  -44.70  -12.62    0.00580     1.39  LEFT      6.05380E-02  -134.61    1.50723E-03  -121.14
   60.00   358.00     -12.11  -44.51  -12.11    0.00587     1.33  LEFT      6.42586E-02  -133.97    1.54133E-03  -119.79
   62.00   358.00     -11.65  -44.40  -11.65    0.00593     1.28  LEFT      6.77497E-02  -132.73    1.56087E-03  -117.82
   64.00   358.00     -11.29  -44.42  -11.28    0.00596     1.22  LEFT      7.06409E-02  -131.21    1.55801E-03  -115.51
   66.00   358.00     -11.03  -44.57  -11.02    0.00598     1.16  LEFT      7.27777E-02  -129.71    1.53103E-03  -113.18
   68.00   358.00     -10.86  -44.85  -10.86    0.00598     1.09  LEFT      7.41679E-02  -128.43    1.48229E-03  -111.01
   70.00   358.00     -10.78  -45.25  -10.78    0.00596     1.03  LEFT      7.48858E-02  -127.51    1.41552E-03  -109.12
   72.00   358.00     -10.77  -45.76  -10.77    0.00592     0.96  LEFT      7.49796E-02  -126.94    1.33383E-03  -107.49
   74.00   358.00     -10.83  -46.41  -10.83    0.00586     0.89  LEFT      7.44100E-02  -126.72    1.23881E-03  -106.09
   76.00   358.00     -11.00  -47.20  -11.00    0.00578     0.82  LEFT      7.30222E-02  -126.80    1.13054E-03  -104.85
   78.00   358.00     -11.30  -48.19  -11.30    0.00569     0.75  LEFT      7.05461E-02  -127.19    1.00834E-03  -103.73
   80.00   358.00     -11.80  -49.46  -11.80    0.00557     0.68  LEFT      6.66020E-02  -127.92    8.71536E-04  -102.71
   82.00   358.00     -12.60  -51.12  -12.60    0.00544     0.60  LEFT      6.06954E-02  -129.08    7.20089E-04  -101.78
   84.00   358.00     -13.92  -53.38  -13.92    0.00529     0.53  LEFT      5.21803E-02  -130.81    5.54907E-04  -100.98
   86.00   358.00     -16.19  -56.72  -16.19    0.00512     0.45  LEFT      4.01760E-02  -133.32    3.77892E-04  -100.32
   88.00   358.00     -20.88  -62.61  -20.88    0.00494     0.37  LEFT      2.34138E-02  -136.92    1.91797E-04   -99.83
   90.00   358.00    -148.61 -191.69 -148.61    0.00474     0.30  LEFT      9.61478E-09  -142.09    6.74226E-11   -99.54
    0.00   360.00     -22.58 -168.84  -22.58    0.00000     0.00  LINEAR    1.92380E-02  -135.38    9.36351E-10  -135.38
    2.00   360.00     -22.04 -168.26  -22.04    0.00000     0.00  LINEAR    2.04775E-02  -136.01    1.00069E-09  -135.71
    4.00   360.00     -21.67 -167.87  -21.67    0.00000     0.00  LINEAR    2.13623E-02  -134.26    1.04730E-09  -133.66
    6.00   360.00     -21.69 -167.86  -21.69    0.00000     0.00  LINEAR    2.13241E-02  -132.98    1.04801E-09  -132.05
    8.00   360.00     -21.75 -167.90  -21.75    0.00000     0.00  LINEAR    2.11838E-02  -134.39    1.04264E-09  -133.11
   10.00   360.00     -21.40 -167.55  -21.40    0.00000     0.00  LINEAR    2.20495E-02  -136.81    1.08562E-09  -135.17
   12.00   360.00     -20.81 -166.97  -20.81    0.00000     0.00  LINEAR    2.35892E-02  -136.98    1.16083E-09  -134.99
   14.00   360.00     -20.47 -166.64  -20.47    0.00000     0.00  LINEAR    2.45483E-02  -135.22    1.20662E-09  -132.86
   16.00   360.00     -20.46 -166.64  -20.46    0.00000     0.00  LINEAR    2.45752E-02  -134.37    1.20542E-09  -131.61
   18.00   360.00     -20.41 -166.63  -20.41    0.00000     0.00  LINEAR    2.46972E-02  -136.04    1.20728E-09  -132.86
   20.00   360.00     -19.98 -166.24  -19.98    0.00000     0.00  LINEAR    2.59654E-02  -138.26    1.26332E-09  -134.67
   22.00   360.00     -19.35 -165.66  -19.35    0.00000     0.00  LINEAR    2.79102E-02  -138.32    1.35044E-09  -134.32
   24.00   360.00     -18.94 -165.30  -18.94    0.00000     0.00  LINEAR    2.92652E-02  -136.64    1.40714E-09  -132.22
   26.00   360.00     -18.83 -165.25  -18.83    0.00000     0.00  LINEAR    2.96473E-02  -135.62    1.41506E-09  -130.75
   28.00   360.00     -18.73 -165.23  -18.73    0.00000     0.00  LINEAR    2.99790E-02  -136.70    1.41836E-09  -131.37
   30.00   360.00     -18.33 -164.92  -18.33    0.00000     0.00  LINEAR    3.13970E-02  -138.70    1.47031E-09  -132.91
   32.00   360.00     -17.69 -164.37  -17.69    0.00000     0.00  LINEAR    3.38058E-02  -139.26    1.56530E-09  -133.01
   34.00   360.00     -17.12 -163.92  -17.12    0.00000     0.00  LINEAR    3.60698E-02  -137.97    1.64968E-09  -131.26
   36.00   360.00     -16.81 -163.72  -16.81    0.00000     0.00  LINEAR    3.73919E-02  -136.31    1.68715E-09  -129.12
   38.00   360.00     -16.66 -163.70  -16.66    0.00000     0.00  LINEAR    3.80594E-02  -135.85    1.69165E-09  -128.15
   40.00   360.00     -16.42 -163.61  -16.42    0.00000     0.00  LINEAR    3.91164E-02  -136.87    1.70988E-09  -128.66
   42.00   360.00     -15.94 -163.29  -15.94    0.00000     0.00  LINEAR    4.13292E-02  -138.15    1.77389E-09  -129.42
   44.00   360.00     -15.31 -162.83  -15.31    0.00000     0.00  LINEAR    4.44390E-02  -138.28    1.86999E-09  -129.02
   46.00   360.00     -14.73 -162.43  -14.73    0.00000     0.00  LINEAR    4.75293E-02  -137.07    1.95771E-09  -127.28
   48.00   360.00     -14.31 -162.21  -14.31    0.00000     0.00  LINEAR    4.98868E-02  -135.33    2.00777E-09  -124.98
   50.00   360.00     -14.04 -162.16  -14.04    0.00000     0.00  LINEAR    5.14596E-02  -134.00    2.01968E-09  -123.06
   52.00   360.00     -13.82 -162.18  -13.82    0.00000     0.00  LINEAR    5.27853E-02  -133.60    2.01601E-09  -122.06
   54.00   360.00     -13.53 -162.14  -13.53    0.00000     0.00  LINEAR    5.45805E-02  -133.99    2.02395E-09  -121.83
   56.00   360.00     -13.11 -162.00  -13.11    0.00000     0.00  LINEAR    5.72587E-02  -134.53    2.05656E-09  -121.73
   58.00   360.00     -12.60 -161.80  -12.60    0.00000     0.00  LINEAR    6.07077E-02  -134.59    2.10651E-09  -121.12
   60.00   360.00     -12.08 -161.60  -12.08    0.00000     0.00  LINEAR    6.44467E-02  -133.92    2.15444E-09  -119.74
   62.00   360.00     -11.62 -161.49  -11.62    0.00000     0.00  LINEAR    6.79440E-02  -132.66    2.18162E-09  -117.75
   64.00   360.00     -11.26 -161.51  -11.26    0.00000     0.00  LINEAR    7.08331E-02  -131.12    2.17729E-09  -115.43
   66.00   360.00     -11.00 -161.66  -11.00    0.00000     0.00  LINEAR    7.29652E-02  -129.62    2.13928E-09  -113.10
   68.00   360.00     -10.84 -161.94  -10.84    0.00000     0.00  LINEAR    7.43533E-02  -128.35    2.07101E-09  -110.93
   70.00   360.00     -10.76 -162.34  -10.76    0.00000     0.00  LINEAR    7.50742E-02  -127.42    1.97776E-09  -109.04
   72.00   360.00     -10.75 -162.86  -10.75    0.00000     0.00  LINEAR    7.51764E-02  -126.86    1.86383E-09  -107.42
   74.00   360.00     -10.81 -163.50  -10.81    0.00000     0.00  LINEAR    7.46184E-02  -126.64    1.73135E-09  -106.02
   76.00   360.00     -10.97 -164.29  -10.97    0.00000     0.00  LINEAR    7.32420E-02  -126.73    1.58037E-09  -104.79
   78.00   360.00     -11.27 -165.28  -11.27    0.00000     0.00  LINEAR    7.07732E-02  -127.11    1.40984E-09  -103.66
   80.00   360.00     -11.77 -166.55  -11.77    0.00000     0.00  LINEAR    6.68289E-02  -127.84    1.21879E-09  -102.63
   82.00   360.00     -12.57 -168.20  -12.57    0.00000     0.00  LINEAR    6.09114E-02  -128.99    1.00715E-09  -101.70
   84.00   360.00     -13.88 -170.47  -13.88    0.00000     0.00  LINEAR    5.23720E-02  -130.71    7.76212E-10  -100.89
   86.00   360.00     -16.15 -173.80  -16.15    0.00000     0.00  LINEAR    4.03268E-02  -133.22    5.28642E-10  -100.22
   88.00   360.00     -20.84 -179.69  -20.84    0.00000     0.00  LINEAR    2.35027E-02  -136.82    2.68321E-10   -99.73
   90.00   360.00    -148.57 -999.99 -148.57    0.00000     0.00  LINEAR    9.65144E-09  -141.99    9.43245E-17   -99.44






 ***** INPUT LINE  6  EN   0    0    0    0  0.00000E+00  0.00000E+00  0.00000E+00  0.00000E+00  0.00000E+00  0.00000E+00

 RUN TIME =    39.550
